data_XIDVOZ
_symmetry_space_group_name_H-M    'P1'
_symmetry_Int_Tables_number       1
loop_
_symmetry_equiv_pos_site_id
_symmetry_equiv_pos_as_xyz
1 x,y,z
_cell_length_a                   7.78203
_cell_length_b                   13.27485
_cell_length_c                   13.31394
_cell_angle_alpha                112.753112
_cell_angle_beta                 100.399812
_cell_angle_gamma                96.232912
loop_
_atom_site_label
_atom_site_type_symbol
_atom_site_fract_x
_atom_site_fract_y
_atom_site_fract_z
     1  C          0.27105000       0.35723000       0.80717000
     2  C          0.72895000       0.64277000       0.19283000
     3  H          0.27325400       0.31158700       0.73235400
     4  H          0.72674600       0.68841300       0.26764600
     5  C          0.26824000       0.41343000       0.89947000
     6  C          0.73176000       0.58657000       0.10053000
     7  C          0.26294000       0.48322000       0.01243000
     8  C          0.73706000       0.51678000       0.98757000
     9  C          0.30844000       0.44793000       0.09823000
    10  C          0.69156000       0.55207000       0.90177000
    11  H          0.34376600       0.37793500       0.07974200
    12  H          0.65623400       0.62206500       0.92025800
    13  C          0.25614000       0.60563000       0.22893000
    14  C          0.74386000       0.39437000       0.77107000
    15  H          0.25306700       0.64873700       0.30424700
    16  H          0.74693300       0.35126300       0.69575300
    17  C          0.20974000       0.64822000       0.15013000
    18  C          0.79026000       0.35178000       0.84987000
    19  H          0.17545400       0.71867300       0.17172700
    20  H          0.82454600       0.28132700       0.82827300
    21  C          0.21344000       0.58742000       0.03903000
    22  C          0.78656000       0.41258000       0.96097000
    23  C          0.15534000       0.62352000       0.94857000
    24  C          0.84466000       0.37648000       0.05143000
    25  H          0.07931400       0.56760300       0.88128300
    26  H          0.92068600       0.43239700       0.11871700
    27  C          0.19464000       0.72382000       0.94827000
    28  C          0.80536000       0.27618000       0.05173000
    29  H          0.13257900       0.73111900       0.88390100
    30  H          0.86742100       0.26888100       0.11609900
    31  C          0.31954000       0.82432000       0.03272000
    32  C          0.68046000       0.17568000       0.96728000
    33  C          0.29344000       0.92842000       0.03823000
    34  C          0.70656000       0.07158000       0.96177000
    35  H          0.19483200       0.93402700       0.98827000
    36  H          0.80516800       0.06597300       0.01173000
    37  C          0.41164000       0.02342000       0.11663000
    38  C          0.58836000       0.97658000       0.88337000
    39  H          0.39056600       0.09342900       0.11924700
    40  H          0.60943400       0.90657100       0.88075300
    41  C          0.58244000       0.92203000       0.18193000
    42  C          0.41756000       0.07797000       0.81807000
    43  H          0.68418800       0.91913800       0.23154200
    44  H          0.31581200       0.08086200       0.76845800
    45  C          0.47094000       0.82293000       0.10593000
    46  C          0.52906000       0.17707000       0.89407000
    47  H          0.49735900       0.75394600       0.10368900
    48  H          0.50264100       0.24605400       0.89631100
    49  N          0.30494000       0.50682000       0.20442000
    50  N          0.69506000       0.49318000       0.79558000
    51  N          0.55354000       0.02202000       0.18872000
    52  N          0.44646000       0.97798000       0.81128000
    53  C          0.25334000       0.22522000       0.35582000
    54  C          0.74666000       0.77478000       0.64418000
    55  C          0.15664000       0.12132000       0.28313000
    56  C          0.84336000       0.87868000       0.71687000
    57  C          0.14384000       0.03272000       0.31393000
    58  C          0.85616000       0.96728000       0.68607000
    59  C          0.22584000       0.04733000       0.42143000
    60  C          0.77416000       0.95267000       0.57857000
    61  C          0.32034000       0.15212000       0.49543000
    62  C          0.67966000       0.84788000       0.50457000
    63  C          0.33474000       0.23882000       0.46272000
    64  C          0.66526000       0.76118000       0.53728000
    65  F          0.07032000       0.10213160       0.17826150
    66  F          0.92968000       0.89786840       0.82173850
    67  F          0.04833000       0.93286840       0.23894170
    68  F          0.95167000       0.06713160       0.76105830
    69  F          0.39843000       0.17195160       0.60168150
    70  F          0.60157000       0.82804840       0.39831850
    71  F          0.42973000       0.33891150       0.53889150
    72  F          0.57027000       0.66108850       0.46110850
    73  I          0.28295300       0.35642200       0.30562200
    74  I          0.71704700       0.64357800       0.69437800
    75  I          0.20580300       0.91803800       0.47261200
    76  I          0.79419700       0.08196200       0.52738800
    77  C          0.89234000       0.39292000       0.43612000
    78  C          0.10766000       0.60708000       0.56388000
    79  C          0.01384000       0.41692000       0.53582000
    80  C         -0.01384000       0.58308000       0.46418000
    81  C          0.12054000       0.52152000       0.59852000
    82  C          0.87946000       0.47848000       0.40148000
    83  F          0.03272000       0.33721140       0.57368150
    84  F          0.96728000       0.66278860       0.42631850
    85  F          0.23452000       0.53963150       0.69478150
    86  F          0.76548000       0.46036850       0.30521850
    87  I          0.74690200       0.23108200       0.33508200
    88  I          0.25309800       0.76891800       0.66491800
