data_XIFLAA01
_symmetry_space_group_name_H-M    'P1'
_symmetry_Int_Tables_number       1
loop_
_symmetry_equiv_pos_site_id
_symmetry_equiv_pos_as_xyz
1 x,y,z
_cell_length_a                   8.2522
_cell_length_b                   10.5352
_cell_length_c                   19.9234
_cell_angle_alpha                90.0
_cell_angle_beta                 99.173
_cell_angle_gamma                90.0
loop_
_atom_site_label
_atom_site_type_symbol
_atom_site_fract_x
_atom_site_fract_y
_atom_site_fract_z
     1  S          0.22563400       0.29431300       0.14386417
     2  S          0.77436600       0.79431300       0.35613583
     3  S          0.77436600       0.70568700       0.85613583
     4  S          0.22563400       0.20568700       0.64386417
     5  C          0.15334160       0.20802120       0.02194700
     6  C          0.84665840       0.70802120       0.47805300
     7  C          0.84665840       0.79197880       0.97805300
     8  C          0.15334160       0.29197880       0.52194700
     9  C          0.90249850       0.30374120       0.16249700
    10  C          0.09750150       0.80374120       0.33750300
    11  C          0.09750150       0.69625880       0.83750300
    12  C          0.90249850       0.19625880       0.66249700
    13  N          0.24895140       0.20170110       0.08365600
    14  N          0.75104860       0.70170110       0.41634400
    15  N          0.75104860       0.79829890       0.91634400
    16  N          0.24895140       0.29829890       0.58365600
    17  O          0.36520120       0.27381110       0.19689500
    18  O          0.63479880       0.77381110       0.30310500
    19  O          0.63479880       0.72618890       0.80310500
    20  O          0.36520120       0.22618890       0.69689500
    21  N          0.17345150       0.10743120       0.98125400
    22  N          0.82654850       0.60743120       0.51874600
    23  N          0.82654850       0.89256880       0.01874600
    24  N          0.17345150       0.39256880       0.48125400
    25  C          0.05162150       0.23999120       0.17600600
    26  C          0.94837850       0.73999120       0.32399400
    27  C          0.94837850       0.76000880       0.82399400
    28  C          0.05162150       0.26000880       0.67600600
    29  C          0.06238160       0.12805130       0.21374700
    30  C          0.93761840       0.62805130       0.28625300
    31  C          0.93761840       0.87194870       0.78625300
    32  C          0.06238160       0.37194870       0.71374700
    33  O          0.19649130       0.42598900       0.12428600
    34  O          0.80350870       0.92598900       0.37571400
    35  O          0.80350870       0.57401100       0.87571400
    36  O          0.19649130       0.07401100       0.62428600
    37  C          0.77522840       0.14452130       0.22490700
    38  C          0.22477160       0.64452130       0.27509300
    39  C          0.22477160       0.85547870       0.77509300
    40  C          0.77522840       0.35547870       0.72490700
    41  C          0.09492000       0.09484160       0.91674200
    42  C          0.90508000       0.59484160       0.58325800
    43  C          0.90508000       0.90515840       0.08325800
    44  C          0.09492000       0.40515840       0.41674200
    45  N          0.64040830       0.09662150       0.24775800
    46  N          0.35959170       0.59662150       0.25224200
    47  N          0.35959170       0.90337850       0.75224200
    48  N          0.64040830       0.40337850       0.74775800
    49  C          0.04021190       0.30210140      -0.00649800
    50  C          0.95978810       0.80210140       0.50649800
    51  C          0.95978810       0.69789860       0.00649800
    52  C          0.04021190       0.19789860       0.49350200
    53  C          0.76564850       0.25722130       0.18680700
    54  C          0.23435150       0.75722130       0.31319300
    55  C          0.23435150       0.74277870       0.81319300
    56  C          0.76564850       0.24277870       0.68680700
    57  C          0.92724830       0.08133140       0.23827700
    58  C          0.07275170       0.58133140       0.26172300
    59  C          0.07275170       0.91866860       0.76172300
    60  C          0.92724830       0.41866860       0.73827700
    61  C          0.95898000       0.28938160       0.92805100
    62  C          0.04102000       0.78938160       0.57194900
    63  C          0.04102000       0.71061840       0.07194900
    64  C          0.95898000       0.21061840       0.42805100
    65  C         -0.01332000       0.18481170       0.88819100
    66  C          0.01332000       0.68481170       0.61180900
    67  C          0.01332000       0.81518830       0.11180900
    68  C         -0.01332000       0.31518830       0.38819100
    69  H          0.55170000       0.13820000       0.23771200
    70  H          0.44830000       0.63820000       0.26228800
    71  H          0.44830000       0.86180000       0.76228800
    72  H          0.55170000       0.36180000       0.73771200
    73  H          0.64570000       0.03620000       0.27301200
    74  H          0.35430000       0.53620000       0.22698800
    75  H          0.35430000       0.96380000       0.72698800
    76  H          0.64570000       0.46380000       0.77301200
    77  H          0.66180000       0.30551500       0.17799000
    78  H          0.33820000       0.80551500       0.32201000
    79  H          0.33820000       0.69448500       0.82201000
    80  H          0.66180000       0.19448500       0.67799000
    81  H          0.16120000       0.08261700       0.22429000
    82  H          0.83880000       0.58261700       0.27571000
    83  H          0.83880000       0.91738300       0.77571000
    84  H          0.16120000       0.41738300       0.72429000
    85  H          0.89480000       0.38161700       0.13719000
    86  H          0.10520000       0.88161700       0.36281000
    87  H          0.10520000       0.61838300       0.86281000
    88  H          0.89480000       0.11838300       0.63719000
    89  H          0.01920000       0.37231800       0.01979000
    90  H         -0.01920000       0.87231800       0.48021000
    91  H         -0.01920000       0.62768200       0.98021000
    92  H          0.01920000       0.12768200       0.51979000
    93  H          0.93180000       0.00811900       0.26211000
    94  H          0.06820000       0.50811900       0.23789000
    95  H          0.06820000      -0.00811900       0.73789000
    96  H          0.93180000       0.49188100       0.76211000
    97  H          0.24620000       0.04551900      -0.00061000
    98  H          0.75380000       0.54551900       0.50061000
    99  H          0.75380000       0.95448100       0.00061000
   100  H          0.24620000       0.45448100       0.49939000
   101  H          0.88470000       0.35520000       0.91048900
   102  H          0.11530000       0.85520000       0.58951100
   103  H          0.11530000       0.64480000       0.08951100
   104  H          0.88470000       0.14480000       0.41048900
   105  H          0.11720000       0.01841900       0.89359000
   106  H          0.88280000       0.51841900       0.60641000
   107  H          0.88280000       0.98158100       0.10641000
   108  H          0.11720000       0.48158100       0.39359000
   109  H          0.93870000       0.17520000       0.84228800
   110  H          0.06130000       0.67520000       0.65771200
   111  H          0.06130000       0.82480000       0.15771200
   112  H          0.93870000       0.32480000       0.34228800
   113  C          0.45535190       0.30188140       0.90909200
   114  C          0.54464810       0.80188140       0.59090800
   115  C          0.54464810       0.69811860       0.09090800
   116  C          0.45535190       0.19811860       0.40909200
   117  N          0.62825160       0.09044120       0.96719400
   118  N          0.37174840       0.59044120       0.53280600
   119  N          0.37174840       0.90955880       0.03280600
   120  N          0.62825160       0.40955880       0.46719400
   121  C          0.47832000       0.19536150       0.87044200
   122  C          0.52168000       0.69536150       0.62955800
   123  C          0.52168000       0.80463850       0.12955800
   124  C          0.47832000       0.30463850       0.37044200
   125  C          0.51892000       0.29774140       0.97779200
   126  C          0.48108000       0.79774140       0.52220800
   127  C          0.48108000       0.70225860       0.02220800
   128  C          0.51892000       0.20225860       0.47779200
   129  C          0.56472000       0.09302150       0.90115200
   130  C          0.43528000       0.59302150       0.59884800
   131  C          0.43528000       0.90697850       0.09884800
   132  C          0.56472000       0.40697850       0.40115200
   133  C          0.60312000       0.19211150       0.00446800
   134  C          0.39688000       0.69211150       0.49553200
   135  C          0.39688000       0.80788850      -0.00446800
   136  C          0.60312000       0.30788850       0.50446800
   137  C          0.36503000       0.41661190       0.87806880
   138  C          0.63497000       0.91661190       0.62193120
   139  C          0.63497000       0.58338810       0.12193120
   140  C          0.36503000       0.08338810       0.37806880
   141  H          0.64830000       0.18461800       0.05221100
   142  H          0.35170000       0.68461800       0.44778900
   143  H          0.35170000       0.81538200       0.94778900
   144  H          0.64830000       0.31538200       0.55221100
   145  H          0.49530000       0.36741800       0.00661100
   146  H          0.50470000       0.86741800       0.49338900
   147  H          0.50470000       0.63258200      -0.00661100
   148  H          0.49530000       0.13258200       0.50661100
   149  H          0.58420000       0.01871700       0.87611000
   150  H          0.41580000       0.51871700       0.62389000
   151  H          0.41580000       0.98128300       0.12389000
   152  H          0.58420000       0.48128300       0.37611000
   153  H          0.43130000       0.19020000       0.82518600
   154  H          0.56870000       0.69020000       0.67481400
   155  H          0.56870000       0.80980000       0.17481400
   156  H          0.43130000       0.30980000       0.32518600
   157  H          0.44640000       0.48030000       0.86848400
   158  H          0.55360000       0.98030000       0.63151600
   159  H          0.55360000       0.51970000       0.13151600
   160  H          0.44640000       0.01970000       0.36848400
   161  H          0.31730000       0.46820000       0.91078700
   162  H          0.68270000       0.96820000       0.58921300
   163  H          0.68270000       0.53180000       0.08921300
   164  H          0.31730000       0.03180000       0.41078700
   165  H          0.27240000       0.39430000       0.84548400
   166  H          0.72760000       0.89430000       0.65451600
   167  H          0.72760000       0.60570000       0.15451600
   168  H          0.27240000       0.10570000       0.34548400
