data_XIFQEJ
_symmetry_space_group_name_H-M    'P1'
_symmetry_Int_Tables_number       1
loop_
_symmetry_equiv_pos_site_id
_symmetry_equiv_pos_as_xyz
1 x,y,z
_cell_length_a                   4.03849
_cell_length_b                   10.4064
_cell_length_c                   12.0523
_cell_angle_alpha                88.832
_cell_angle_beta                 83.98118
_cell_angle_gamma                82.502
loop_
_atom_site_label
_atom_site_type_symbol
_atom_site_fract_x
_atom_site_fract_y
_atom_site_fract_z
     1  N          0.60416000       0.42492000       0.74215170
     2  N          0.39584000       0.57508000       0.25784830
     3  C          0.81007000       0.38273000       0.65542000
     4  C          0.18993000       0.61727000       0.34458000
     5  H          0.83330000       0.43660000       0.59340000
     6  H          0.16670000       0.56340000       0.40660000
     7  C         -0.00173000       0.25792000       0.65292000
     8  C          0.00173000       0.74208000       0.34708000
     9  H          0.14050000       0.23220000       0.58930000
    10  H          0.85950000       0.76780000       0.41070000
    11  N         -0.02275000       0.17718190       0.73826170
    12  N          0.02275000       0.82281810       0.26173830
    13  C          0.73587000       0.13752000       0.92452000
    14  C          0.26413000       0.86248000       0.07548000
    15  H          0.85560000       0.05480000       0.92330000
    16  H          0.14440000       0.94520000       0.07670000
    17  C          0.53247000       0.18003000       0.01782000
    18  C          0.46753000       0.81997000       0.98218000
    19  H          0.51930000       0.12660000       0.08060000
    20  H          0.48070000       0.87340000       0.91940000
    21  C          0.34267000       0.30363000       0.02012000
    22  C          0.65733000       0.69637000       0.97988000
    23  H          0.20330000       0.33100000       0.08390000
    24  H          0.79670000       0.66900000       0.91610000
    25  C          0.36256000       0.38342000       0.92892000
    26  C          0.63744000       0.61658000       0.07108000
    27  H          0.23430000       0.46450000       0.93040000
    28  H          0.76570000       0.53550000       0.06960000
    29  C          0.57656000       0.34332000       0.83244190
    30  C          0.42344000       0.65668000       0.16755810
    31  C          0.76446000       0.21872000       0.83002000
    32  C          0.23554000       0.78128000       0.16998000
    33  C          0.38486000       0.73122000       0.64502000
    34  C          0.61514000       0.26878000       0.35498000
    35  C          0.22227000       0.87182000       0.64122000
    36  C          0.77773000       0.12818000       0.35878000
    37  H         -0.01710000       0.87710000       0.66770000
    38  H          0.01710000       0.12290000       0.33230000
    39  O          0.27755000       0.67053180       0.73625150
    40  O          0.72245000       0.32946820       0.26374850
    41  H          0.39690000       0.57940000       0.73930000
    42  H          0.60310000       0.42060000       0.26070000
    43  O          0.59055000       0.68219190       0.57360160
    44  O          0.40945000       0.31780810       0.42639840
    45  O          0.26046000       0.91914190       0.53107160
    46  O          0.73954000       0.08085810       0.46892840
    47  H          0.13630000       0.97700000       0.49830000
    48  H          0.86370000       0.02300000       0.50170000
    49  O          0.38425000       0.94045170       0.71321150
    50  O          0.61575000       0.05954830       0.28678850
    51  H          0.24290000       0.01740000       0.72730000
    52  H          0.75710000       0.98260000       0.27270000
