data_XIGJUW
_symmetry_space_group_name_H-M    'P1'
_symmetry_Int_Tables_number       1
loop_
_symmetry_equiv_pos_site_id
_symmetry_equiv_pos_as_xyz
1 x,y,z
_cell_length_a                   29.7423
_cell_length_b                   4.04424
_cell_length_c                   21.0752
_cell_angle_alpha                90.0
_cell_angle_beta                 114.8573
_cell_angle_gamma                90.0
loop_
_atom_site_label
_atom_site_type_symbol
_atom_site_fract_x
_atom_site_fract_y
_atom_site_fract_z
     1  I          0.60311200       0.48432800       0.66083200
     2  I          0.39688800       0.48432800       0.83916800
     3  I          0.10311200      -0.01567200       0.66083200
     4  I          0.89688800      -0.01567200       0.83916800
     5  I          0.39688800       0.51567200       0.33916800
     6  I          0.60311200       0.51567200       0.16083200
     7  I          0.89688800       0.01567200       0.33916800
     8  I          0.10311200       0.01567200       0.16083200
     9  Br         0.56460200       0.69115130       0.74257300
    10  Br         0.43539800       0.69115130       0.75742700
    11  Br         0.06460200       0.19115130       0.74257300
    12  Br         0.93539800       0.19115130       0.75742700
    13  Br         0.43539800       0.30884870       0.25742700
    14  Br         0.56460200       0.30884870       0.24257300
    15  Br         0.93539800       0.80884870       0.25742700
    16  Br         0.06460200       0.80884870       0.24257300
    17  N          0.64047150       0.26829000       0.58042000
    18  N          0.35952850       0.26829000       0.91958000
    19  N          0.14047150       0.76829000       0.58042000
    20  N          0.85952850       0.76829000       0.91958000
    21  N          0.35952850       0.73171000       0.41958000
    22  N          0.64047150       0.73171000       0.08042000
    23  N          0.85952850       0.23171000       0.41958000
    24  N          0.14047150       0.23171000       0.08042000
    25  N          0.68277150       0.94368900       0.49952000
    26  N          0.31722850       0.94368900       0.00048000
    27  N          0.18277150       0.44368900       0.49952000
    28  N          0.81722850       0.44368900       0.00048000
    29  N          0.31722850       0.05631100       0.50048000
    30  N          0.68277150       0.05631100      -0.00048000
    31  N          0.81722850       0.55631100       0.50048000
    32  N          0.18277150       0.55631100      -0.00048000
    33  C          0.69045180       0.25811200       0.60253000
    34  C          0.30954820       0.25811200       0.89747000
    35  C          0.19045180       0.75811200       0.60253000
    36  C          0.80954820       0.75811200       0.89747000
    37  C          0.30954820       0.74188800       0.39747000
    38  C          0.69045180       0.74188800       0.10253000
    39  C          0.80954820       0.24188800       0.39747000
    40  C          0.19045180       0.24188800       0.10253000
    41  C          0.72236180       0.41411300       0.66553000
    42  C          0.27763820       0.41411300       0.83447000
    43  C          0.22236180       0.91411300       0.66553000
    44  C          0.77763820       0.91411300       0.83447000
    45  C          0.27763820       0.58588700       0.33447000
    46  C          0.72236180       0.58588700       0.16553000
    47  C          0.77763820       0.08588700       0.33447000
    48  C          0.22236180       0.08588700       0.16553000
    49  H          0.70911100       0.52368500       0.69372300
    50  H          0.29088900       0.52368500       0.80627700
    51  H          0.20911100       0.02368500       0.69372300
    52  H          0.79088900       0.02368500       0.80627700
    53  H          0.29088900       0.47631500       0.30627700
    54  H          0.70911100       0.47631500       0.19372300
    55  H          0.79088900      -0.02368500       0.30627700
    56  H          0.20911100      -0.02368500       0.19372300
    57  C          0.77238190       0.40571300       0.68543000
    58  C          0.22761810       0.40571300       0.81457000
    59  C          0.27238190       0.90571300       0.68543000
    60  C          0.72761810       0.90571300       0.81457000
    61  C          0.22761810       0.59428700       0.31457000
    62  C          0.77238190       0.59428700       0.18543000
    63  C          0.72761810       0.09428700       0.31457000
    64  C          0.27238190       0.09428700       0.18543000
    65  H          0.79371400       0.51359400       0.72730700
    66  H          0.20628600       0.51359400       0.77269300
    67  H          0.29371400       0.01359400       0.72730700
    68  H          0.70628600       0.01359400       0.77269300
    69  H          0.20628600       0.48640600       0.27269300
    70  H          0.79371400       0.48640600       0.22730700
    71  H          0.70628600      -0.01359400       0.27269300
    72  H          0.29371400      -0.01359400       0.22730700
    73  C          0.79332000       0.23831300       0.64463000
    74  C          0.20668000       0.23831300       0.85537000
    75  C          0.29332000       0.73831300       0.64463000
    76  C          0.70668000       0.73831300       0.85537000
    77  C          0.20668000       0.76168700       0.35537000
    78  C          0.79332000       0.76168700       0.14463000
    79  C          0.70668000       0.26168700       0.35537000
    80  C          0.29332000       0.26168700       0.14463000
    81  H          0.82819100       0.23556200       0.65952400
    82  H          0.17180900       0.23556200       0.84047600
    83  H          0.32819100       0.73556200       0.65952400
    84  H          0.67180900       0.73556200       0.84047600
    85  H          0.17180900       0.76443800       0.34047600
    86  H          0.82819100       0.76443800       0.15952400
    87  H          0.67180900       0.26443800       0.34047600
    88  H          0.32819100       0.26443800       0.15952400
    89  C          0.76350180       0.08311300       0.58443000
    90  C          0.23649820       0.08311300       0.91557000
    91  C          0.26350180       0.58311300       0.58443000
    92  C          0.73649820       0.58311300       0.91557000
    93  C          0.23649820       0.91688700       0.41557000
    94  C          0.76350180       0.91688700       0.08443000
    95  C          0.73649820       0.41688700       0.41557000
    96  C          0.26350180       0.41688700       0.08443000
    97  H          0.77766500      -0.03106000       0.55787200
    98  H          0.22233500      -0.03106000       0.94212800
    99  H          0.27766500       0.46894000       0.55787200
   100  H          0.72233500       0.46894000       0.94212800
   101  H          0.22233500       0.03106000       0.44212800
   102  H          0.77766500       0.03106000       0.05787200
   103  H          0.72233500       0.53106000       0.44212800
   104  H          0.27766500       0.53106000       0.05787200
   105  C          0.71103180       0.09081200       0.56102000
   106  C          0.28896820       0.09081200       0.93898000
   107  C          0.21103180       0.59081200       0.56102000
   108  C          0.78896820       0.59081200       0.93898000
   109  C          0.28896820       0.90918800       0.43898000
   110  C          0.71103180       0.90918800       0.06102000
   111  C          0.78896820       0.40918800       0.43898000
   112  C          0.21103180       0.40918800       0.06102000
   113  C          0.63360180      -0.03261200       0.47763000
   114  C          0.36639820      -0.03261200       0.02237000
   115  C          0.13360180       0.46738800       0.47763000
   116  C          0.86639820       0.46738800       0.02237000
   117  C          0.36639820       0.03261200       0.52237000
   118  C          0.63360180       0.03261200       0.97763000
   119  C          0.86639820       0.53261200       0.52237000
   120  C          0.13360180       0.53261200       0.97763000
   121  C          0.60243190       0.82758600       0.41153000
   122  C          0.39756810       0.82758600       0.08847000
   123  C          0.10243190       0.32758600       0.41153000
   124  C          0.89756810       0.32758600       0.08847000
   125  C          0.39756810       0.17241400       0.58847000
   126  C          0.60243190       0.17241400       0.91153000
   127  C          0.89756810       0.67241400       0.58847000
   128  C          0.10243190       0.67241400       0.91153000
   129  H          0.61663700       0.72047700       0.38413200
   130  H          0.38336300       0.72047700       0.11586800
   131  H          0.11663700       0.22047700       0.38413200
   132  H          0.88336300       0.22047700       0.11586800
   133  H          0.38336300       0.27952300       0.61586800
   134  H          0.61663700       0.27952300       0.88413200
   135  H          0.88336300       0.77952300       0.61586800
   136  H          0.11663700       0.77952300       0.88413200
   137  C          0.55225190       0.84818700       0.38763000
   138  C          0.44774810       0.84818700       0.11237000
   139  C          0.05225190       0.34818700       0.38763000
   140  C          0.94774810       0.34818700       0.11237000
   141  C          0.44774810       0.15181300       0.61237000
   142  C          0.55225190       0.15181300       0.88763000
   143  C          0.94774810       0.65181300       0.61237000
   144  C          0.05225190       0.65181300       0.88763000
   145  H          0.53161600       0.75526000       0.34343700
   146  H          0.46838400       0.75526000       0.15656300
   147  H          0.03161600       0.25526000       0.34343700
   148  H          0.96838400       0.25526000       0.15656300
   149  H          0.46838400       0.24474000       0.65656300
   150  H          0.53161600       0.24474000       0.84343700
   151  H          0.96838400       0.74474000       0.65656300
   152  H          0.03161600       0.74474000       0.84343700
   153  C          0.53048190       0.00651300       0.42773000
   154  C          0.46951810       0.00651300       0.07227000
   155  C          0.03048190       0.50651300       0.42773000
   156  C          0.96951810       0.50651300       0.07227000
   157  C          0.46951810      -0.00651300       0.57227000
   158  C          0.53048190      -0.00651300       0.92773000
   159  C          0.96951810       0.49348700       0.57227000
   160  C          0.03048190       0.49348700       0.92773000
   161  H          0.49539900       0.01777900       0.41005800
   162  H          0.50460100       0.01777900       0.08994200
   163  H         -0.00460100       0.51777900       0.41005800
   164  H          0.00460100       0.51777900       0.08994200
   165  H          0.50460100      -0.01777900       0.58994200
   166  H          0.49539900      -0.01777900       0.91005800
   167  H          0.00460100       0.48222100       0.58994200
   168  H         -0.00460100       0.48222100       0.91005800
   169  C          0.55874180       0.14231300       0.49103000
   170  C          0.44125820       0.14231300       0.00897000
   171  C          0.05874180       0.64231300       0.49103000
   172  C          0.94125820       0.64231300       0.00897000
   173  C          0.44125820       0.85768700       0.50897000
   174  C          0.55874180       0.85768700       0.99103000
   175  C          0.94125820       0.35768700       0.50897000
   176  C          0.05874180       0.35768700       0.99103000
   177  H          0.54343000       0.24638700       0.51725900
   178  H          0.45657000       0.24638700       0.98274100
   179  H          0.04343000       0.74638700       0.51725900
   180  H          0.95657000       0.74638700       0.98274100
   181  H          0.45657000       0.75361300       0.48274100
   182  H          0.54343000       0.75361300       0.01725900
   183  H          0.95657000       0.25361300       0.48274100
   184  H          0.04343000       0.25361300       0.01725900
   185  C          0.61132180       0.12871300       0.51793000
   186  C          0.38867820       0.12871300       0.98207000
   187  C          0.11132180       0.62871300       0.51793000
   188  C          0.88867820       0.62871300       0.98207000
   189  C          0.38867820       0.87128700       0.48207000
   190  C          0.61132180       0.87128700       0.01793000
   191  C          0.88867820       0.37128700       0.48207000
   192  C          0.11132180       0.37128700       0.01793000
