data_XIHNOS
_symmetry_space_group_name_H-M    'P1'
_symmetry_Int_Tables_number       1
loop_
_symmetry_equiv_pos_site_id
_symmetry_equiv_pos_as_xyz
1 x,y,z
_cell_length_a                   14.68699
_cell_length_b                   6.94794
_cell_length_c                   15.50189
_cell_angle_alpha                90.0
_cell_angle_beta                 110.7776
_cell_angle_gamma                90.0
loop_
_atom_site_label
_atom_site_type_symbol
_atom_site_fract_x
_atom_site_fract_y
_atom_site_fract_z
     1  N          0.37696800       0.17427140       0.33239700
     2  N          0.62303200       0.67427140       0.16760300
     3  N          0.62303200       0.82572860       0.66760300
     4  N          0.37696800       0.32572860       0.83239700
     5  C          0.35770100       0.23423180       0.23335900
     6  C          0.64229900       0.73423180       0.26664100
     7  C          0.64229900       0.76576820       0.76664100
     8  C          0.35770100       0.26576820       0.73335900
     9  C          0.35665100       0.45084180       0.22311900
    10  C          0.64334900       0.95084180       0.27688100
    11  C          0.64334900       0.54915820       0.77688100
    12  C          0.35665100       0.04915820       0.72311900
    13  O          0.44694700       0.53296130       0.28100600
    14  O          0.55305300       0.03296130       0.21899400
    15  O          0.55305300       0.46703870       0.71899400
    16  O          0.44694700       0.96703870       0.78100600
    17  C          0.46635100       0.48674190       0.37564900
    18  C          0.53364900      -0.01325810       0.12435100
    19  C          0.53364900       0.51325810       0.62435100
    20  C          0.46635100       0.01325810       0.87564900
    21  C          0.47074900       0.27124180       0.39152900
    22  C          0.52925100       0.77124180       0.10847100
    23  C          0.52925100       0.72875820       0.60847100
    24  C          0.47074900       0.22875820       0.89152900
    25  C          0.39075100       0.95975820       0.33883100
    26  C          0.60924900       0.45975820       0.16116900
    27  C          0.60924900       0.04024180       0.66116900
    28  C          0.39075100       0.54024180       0.83883100
    29  C          0.28968900       0.22771190       0.35725100
    30  C          0.71031100       0.72771190       0.14274900
    31  C          0.71031100       0.77228810       0.64274900
    32  C          0.28968900       0.27228810       0.85725100
    33  C          0.29233100       0.18120190       0.45501100
    34  C          0.70766900       0.68120190       0.04498900
    35  C          0.70766900       0.81879810       0.54498900
    36  C          0.29233100       0.31879810       0.95501100
    37  O          0.20870800       0.20973180       0.45907800
    38  O          0.79129200       0.70973180       0.04092200
    39  O          0.79129200       0.79026820       0.54092200
    40  O          0.20870800       0.29026820       0.95907800
    41  O          0.36744800       0.12958150       0.51700700
    42  O          0.63255200       0.62958150       0.98299300
    43  O          0.63255200       0.87041850       0.48299300
    44  O          0.36744800       0.37041850       0.01700700
    45  H          0.29541200       0.17320000       0.19791200
    46  H          0.70458800       0.67320000       0.30208800
    47  H          0.70458800       0.82680000       0.80208800
    48  H          0.29541200       0.32680000       0.69791200
    49  H          0.41291100       0.17720000       0.21911000
    50  H          0.58708900       0.67720000       0.28089000
    51  H          0.58708900       0.82280000       0.78089000
    52  H          0.41291100       0.32280000       0.71911000
    53  H          0.30541200       0.51020000       0.23841100
    54  H          0.69458800       0.01020000       0.26158900
    55  H          0.69458800       0.48980000       0.76158900
    56  H          0.30541200      -0.01020000       0.73841100
    57  H          0.35331100       0.47820000       0.16131100
    58  H          0.64668900       0.97820000       0.33868900
    59  H          0.64668900       0.52180000       0.83868900
    60  H          0.35331100       0.02180000       0.66131100
    61  H          0.41491200       0.54920000       0.39621100
    62  H          0.58508800       0.04920000       0.10378900
    63  H          0.58508800       0.45080000       0.60378900
    64  H          0.41491200       0.95080000       0.89621100
    65  H          0.53211200       0.54020000       0.41021100
    66  H          0.46788800       0.04020000       0.08978900
    67  H          0.46788800       0.45980000       0.58978900
    68  H          0.53211200       0.95980000       0.91021100
    69  H          0.48211100       0.24320000       0.45651100
    70  H          0.51788900       0.74320000       0.04348900
    71  H          0.51788900       0.75680000       0.54348900
    72  H          0.48211100       0.25680000       0.95651100
    73  H          0.51861200       0.21220000       0.37091200
    74  H          0.48138800       0.71220000       0.12908800
    75  H          0.48138800       0.78780000       0.62908800
    76  H          0.51861200       0.28780000       0.87091200
    77  H          0.33181300       0.90080000       0.29501200
    78  H          0.66818700       0.40080000       0.20498800
    79  H          0.66818700       0.09920000       0.70498800
    80  H          0.33181300       0.59920000       0.79501200
    81  H          0.40481200       0.92180000       0.40411200
    82  H          0.59518800       0.42180000       0.09588800
    83  H          0.59518800       0.07820000       0.59588800
    84  H          0.40481200       0.57820000       0.90411200
    85  H          0.44831200       0.92680000       0.32211100
    86  H          0.55168800       0.42680000       0.17788900
    87  H          0.55168800       0.07320000       0.67788900
    88  H          0.44831200       0.57320000       0.82211100
    89  H          0.28211200       0.36520000       0.34611100
    90  H          0.71788800       0.86520000       0.15388900
    91  H          0.71788800       0.63480000       0.65388900
    92  H          0.28211200       0.13480000       0.84611100
    93  H          0.23731200       0.16320000       0.31421100
    94  H          0.76268800       0.66320000       0.18578900
    95  H          0.76268800       0.83680000       0.68578900
    96  H          0.23731200       0.33680000       0.81421100
    97  O          0.15176700       0.19566150       0.59103700
    98  O          0.84823300       0.69566150       0.90896300
    99  O          0.84823300       0.80433850       0.40896300
   100  O          0.15176700       0.30433850       0.09103700
   101  C          0.05660100       0.22751180       0.56340900
   102  C          0.94339900       0.72751180       0.93659100
   103  C          0.94339900       0.77248820       0.43659100
   104  C          0.05660100       0.27248820       0.06340900
   105  C          0.01471100       0.23645180       0.63209100
   106  C          0.98528900       0.73645180       0.86790900
   107  C          0.98528900       0.76354820       0.36790900
   108  C          0.01471100       0.26354820       0.13209100
   109  C          0.91632100       0.26780170       0.60730900
   110  C          0.08367900       0.76780170       0.89269100
   111  C          0.08367900       0.73219830       0.39269100
   112  C          0.91632100       0.23219830       0.10730900
   113  C          0.85646100       0.29314170       0.51543900
   114  C          0.14353900       0.79314170       0.98456100
   115  C          0.14353900       0.70685830       0.48456100
   116  C          0.85646100       0.20685830       0.01543900
   117  C          0.89805900       0.28383180       0.44740100
   118  C          0.10194100       0.78383180       0.05259900
   119  C          0.10194100       0.71616820       0.55259900
   120  C          0.89805900       0.21616820       0.94740100
   121  C         -0.00327100       0.25193180       0.47090900
   122  C          0.00327100       0.75193180       0.02909100
   123  C          0.00327100       0.74806820       0.52909100
   124  C         -0.00327100       0.24806820       0.97090900
   125  N          0.88053200       0.27569170       0.68498800
   126  N          0.11946800       0.77569170       0.81501200
   127  N          0.11946800       0.72430830       0.31501200
   128  N          0.88053200       0.22430830       0.18498800
   129  O          0.86989100       0.12220150       0.71913800
   130  O          0.13010900       0.62220150       0.78086200
   131  O          0.13010900       0.87779850       0.28086200
   132  O          0.86989100       0.37779850       0.21913800
   133  O          0.86844200       0.43336150       0.71384800
   134  O          0.13155800       0.93336150       0.78615200
   135  O          0.13155800       0.56663850       0.28615200
   136  O          0.86844200       0.06663850       0.21384800
   137  N          0.75238200       0.32361150       0.48816800
   138  N          0.24761800       0.82361150       0.01183200
   139  N          0.24761800       0.67638850       0.51183200
   140  N          0.75238200       0.17638850       0.98816800
   141  O          0.71511300       0.31500150       0.54814700
   142  O          0.28488700       0.81500150       0.95185300
   143  O          0.28488700       0.68499850       0.45185300
   144  O          0.71511300       0.18499850       0.04814700
   145  O          0.70502300       0.35583150       0.40627700
   146  O          0.29497700       0.85583150       0.09372300
   147  O          0.29497700       0.64416850       0.59372300
   148  O          0.70502300       0.14416850       0.90627700
   149  H          0.17361700       0.18930000       0.54111800
   150  H          0.82638300       0.68930000       0.95888200
   151  H          0.82638300       0.81070000       0.45888200
   152  H          0.17361700       0.31070000       0.04111800
   153  H          0.05231200       0.22120000       0.69281200
   154  H          0.94768800       0.72120000       0.80718800
   155  H          0.94768800       0.77880000       0.30718800
   156  H          0.05231200       0.27880000       0.19281200
   157  H          0.85838900       0.29720000       0.38311100
   158  H          0.14161100       0.79720000       0.11688900
   159  H          0.14161100       0.70280000       0.61688900
   160  H          0.85838900       0.20280000       0.88311100
   161  H          0.02691300       0.24720000       0.42451200
   162  H          0.97308700       0.74720000       0.07548800
   163  H          0.97308700       0.75280000       0.57548800
   164  H          0.02691300       0.25280000       0.92451200
