data_XIKPOY
_symmetry_space_group_name_H-M    'P1'
_symmetry_Int_Tables_number       1
loop_
_symmetry_equiv_pos_site_id
_symmetry_equiv_pos_as_xyz
1 x,y,z
_cell_length_a                   7.840513
_cell_length_b                   9.216312
_cell_length_c                   15.4842
_cell_angle_alpha                96.81311
_cell_angle_beta                 90.71313
_cell_angle_gamma                104.16113
loop_
_atom_site_label
_atom_site_type_symbol
_atom_site_fract_x
_atom_site_fract_y
_atom_site_fract_z
     1  C          0.84761810       0.21678180       0.70847110
     2  C          0.15238190       0.78321820       0.29152890
     3  C          0.01442000       0.33708180       0.60481110
     4  C         -0.01442000       0.66291820       0.39518890
     5  C          0.08862000       0.33182180       0.52341110
     6  C          0.91138000       0.66817820       0.47658890
     7  H          0.05960000       0.24430000       0.48400000
     8  H          0.94040000       0.75570000       0.51600000
     9  C          0.20742000       0.46130180       0.50275110
    10  C          0.79258000       0.53869820       0.49724890
    11  C          0.39292000       0.63029180       0.44712110
    12  C          0.60708000       0.36970820       0.55287890
    13  C          0.24688190       0.59043180       0.56359110
    14  C          0.75311810       0.40956820       0.43640890
    15  C          0.18042000       0.60261180       0.64431110
    16  C          0.81958000       0.39738820       0.35568890
    17  H          0.21190000       0.69100000       0.68300000
    18  H          0.78810000       0.30900000       0.31700000
    19  C          0.06102000       0.47243190       0.66488110
    20  C          0.93898000       0.52756810       0.33511890
    21  C          0.02082000       0.59137180       0.81238110
    22  C         -0.02082000       0.40862820       0.18761890
    23  C         -0.02152000       0.72417190       0.79761120
    24  C          0.02152000       0.27582810       0.20238880
    25  H          0.92840000       0.73230000       0.74420000
    26  H          0.07160000       0.26770000       0.25580000
    27  C          0.01182000       0.84482000       0.86341130
    28  C         -0.01182000       0.15518000       0.13658870
    29  H         -0.01570000       0.93450000       0.85410000
    30  H          0.01570000       0.06550000       0.14590000
    31  C          0.08562000       0.83192000       0.94254130
    32  C          0.91438000       0.16808000       0.05745870
    33  H          0.10950000       0.91330000       0.98630000
    34  H          0.89050000       0.08670000       0.01370000
    35  C          0.12432000       0.69712000       0.95694120
    36  C          0.87568000       0.30288000       0.04305880
    37  H          0.17190000       0.68800000       0.01080000
    38  H          0.82810000       0.31200000       0.98920000
    39  C          0.09232000       0.57652000       0.89155120
    40  C          0.90768000       0.42348000       0.10844880
    41  H          0.11880000       0.48640000       0.90100000
    42  H          0.88120000       0.51360000       0.09900000
    43  C          0.73558000       0.07718190       0.73776110
    44  C          0.26442000       0.92281810       0.26223890
    45  C          0.65988000       0.08012000       0.81799120
    46  C          0.34012000       0.91988000       0.18200880
    47  H          0.67790000       0.17090000       0.85430000
    48  H          0.32210000       0.82910000       0.14570000
    49  C          0.55708000       0.94888000       0.84499120
    50  C          0.44292000       0.05112000       0.15500880
    51  H          0.50660000       0.95220000       0.89900000
    52  H          0.49340000       0.04780000       0.10100000
    53  C          0.53038000       0.81348000       0.79127120
    54  C          0.46962000       0.18652000       0.20872880
    55  H          0.46200000       0.72550000       0.80910000
    56  H          0.53800000       0.27450000       0.19090000
    57  C          0.60558000       0.80917810       0.71116120
    58  C          0.39442000       0.19082190       0.28883880
    59  H          0.58770000       0.71810000       0.67510000
    60  H          0.41230000       0.28190000       0.32490000
    61  C          0.70818000       0.94047810       0.68402120
    62  C          0.29182000       0.05952190       0.31597880
    63  H          0.75830000       0.93690000       0.63000000
    64  H          0.24170000       0.06310000       0.37000000
    65  C          0.51922000       0.72259180       0.39488110
    66  C          0.48078000       0.27740820       0.60511890
    67  C          0.60632000       0.87010190       0.42736120
    68  C          0.39368000       0.12989810       0.57263880
    69  H          0.58310000       0.91060000       0.48260000
    70  H          0.41690000       0.08940000       0.51740000
    71  C          0.72692000       0.95652000       0.37774130
    72  C          0.27308000       0.04348000       0.62225870
    73  H          0.78360000       0.05530000       0.39940000
    74  H          0.21640000       0.94470000       0.60060000
    75  C          0.76332000       0.89592000       0.29584130
    76  C          0.23668000       0.10408000       0.70415870
    77  H          0.84450000       0.95390000       0.26250000
    78  H          0.15550000       0.04610000       0.73750000
    79  C          0.67842000       0.74872000       0.26367120
    80  C          0.32158000       0.25128000       0.73632880
    81  H          0.70420000       0.70800000       0.20900000
    82  H          0.29580000       0.29200000       0.79100000
    83  C          0.55532000       0.66163190       0.31225110
    84  C          0.44468000       0.33836810       0.68774890
    85  H          0.49730000       0.56350000       0.29000000
    86  H          0.50270000       0.43650000       0.71000000
    87  N         -0.01367170       0.46560150       0.74491900
    88  N          0.01367170       0.53439850       0.25508100
    89  N          0.88476830       0.33606150       0.77009900
    90  N          0.11523170       0.66393850       0.22990100
    91  N          0.89924830       0.20989160       0.62705900
    92  N          0.10075170       0.79010840       0.37294100
    93  N          0.30435170       0.49129150       0.42891900
    94  N          0.69564830       0.50870850       0.57108100
    95  O          0.36593140       0.70033130       0.52791700
    96  O          0.63406860       0.29966870       0.47208300
    97  C          0.42652000       0.54492000       0.07639130
    98  C          0.57348000       0.45508000       0.92360870
    99  H          0.37760000       0.57550000       0.12770000
   100  H          0.62240000       0.42450000       0.87230000
   101  C          0.37732000       0.39632000       0.03973130
   102  C          0.62268000       0.60368000       0.96026870
   103  H          0.29490000       0.32660000       0.06630000
   104  H          0.70510000       0.67340000       0.93370000
   105  C          0.45012000       0.35072000       0.96355870
   106  C          0.54988000       0.64928000       0.03644130
   107  H          0.41680000       0.25030000       0.93890000
   108  H          0.58320000       0.74970000       0.06110000
