data_XIPSEW
_symmetry_space_group_name_H-M    'P1'
_symmetry_Int_Tables_number       1
loop_
_symmetry_equiv_pos_site_id
_symmetry_equiv_pos_as_xyz
1 x,y,z
_cell_length_a                   7.1426
_cell_length_b                   7.3886
_cell_length_c                   14.67213
_cell_angle_alpha                81.13215
_cell_angle_beta                 78.53915
_cell_angle_gamma                62.60012
loop_
_atom_site_label
_atom_site_type_symbol
_atom_site_fract_x
_atom_site_fract_y
_atom_site_fract_z
     1  I          0.77193700       0.52137700       0.42180400
     2  I          0.22806300       0.47862300       0.57819600
     3  F          0.78277000       0.28146000       0.62903000
     4  F          0.21723000       0.71854000       0.37097000
     5  F          0.05627000       0.11296000       0.31513000
     6  F          0.94373000       0.88704000       0.68487000
     7  C          0.91601100       0.20771100       0.47016000
     8  C          0.08398900       0.79228900       0.52984000
     9  C          0.88931100       0.14481100       0.56335000
    10  C          0.11068900       0.85518900       0.43665000
    11  C          0.02721100       0.06001200       0.40736000
    12  C          0.97278900       0.93998800       0.59264000
    13  O          0.68689000       0.22478000       0.92164000
    14  O          0.31311000       0.77522000       0.07836000
    15  H          0.55160000       0.24315000       0.93660000
    16  H          0.44840000       0.75685000       0.06340000
    17  O          0.29618000       0.39888000       0.95804000
    18  O          0.70382000       0.60112000       0.04196000
    19  N          0.43469000       0.08169000       0.66705000
    20  N          0.56531000       0.91831000       0.33295000
    21  C          0.89281200       0.37181200       0.82266000
    22  C          0.10718800       0.62818800       0.17734000
    23  H          0.98020000       0.34640000       0.87110000
    24  H          0.01980000       0.65360000       0.12890000
    25  H          0.87520000       0.49990000       0.78600000
    26  H          0.12480000       0.50010000       0.21400000
    27  H          0.96310000       0.25890000       0.78150000
    28  H          0.03690000       0.74110000       0.21850000
    29  C          0.67921200       0.38731100       0.86696000
    30  C          0.32078800       0.61268900       0.13304000
    31  C          0.48681100       0.55511000       0.85585000
    32  C          0.51318900       0.44489000       0.14415000
    33  C          0.29311100       0.55441100       0.90685000
    34  C          0.70688900       0.44558900       0.09315000
    35  C          0.08291200       0.73781200       0.90036000
    36  C          0.91708800       0.26218800       0.09964000
    37  H          0.96760000       0.70350000       0.93180000
    38  H          0.03240000       0.29650000       0.06820000
    39  H          0.06580000       0.78000000       0.83460000
    40  H          0.93420000       0.22000000       0.16540000
    41  H          0.07790000       0.84990000       0.93040000
    42  H          0.92210000       0.15010000       0.06960000
    43  C          0.47791000       0.73741000       0.79055000
    44  C          0.52209000       0.26259000       0.20945000
    45  C          0.47701200       0.73681100       0.69705000
    46  C          0.52298800       0.26318900       0.30295000
    47  H          0.49240000       0.61820000       0.67250000
    48  H          0.50760000       0.38180000       0.32750000
    49  C          0.45361200       0.91091100       0.63846000
    50  C          0.54638800       0.08908900       0.36154000
    51  H          0.45090000       0.90740000       0.57420000
    52  H          0.54910000       0.09260000       0.42580000
    53  C          0.44351200       0.07861100       0.75706000
    54  C          0.55648800       0.92138900       0.24294000
    55  H          0.43480000       0.19700000       0.77890000
    56  H          0.56520000       0.80300000       0.22110000
    57  C          0.46461200       0.91211100       0.82136000
    58  C          0.53538800       0.08788900       0.17864000
    59  H          0.46980000       0.91840000       0.88490000
    60  H          0.53020000       0.08160000       0.11510000
