data_XIRVAZ
_symmetry_space_group_name_H-M    'P1'
_symmetry_Int_Tables_number       1
loop_
_symmetry_equiv_pos_site_id
_symmetry_equiv_pos_as_xyz
1 x,y,z
_cell_length_a                   9.24853
_cell_length_b                   11.11946
_cell_length_c                   27.58469
_cell_angle_alpha                84.6983
_cell_angle_beta                 85.7143
_cell_angle_gamma                72.8354
loop_
_atom_site_label
_atom_site_type_symbol
_atom_site_fract_x
_atom_site_fract_y
_atom_site_fract_z
     1  I          0.46540890       0.74390900       0.16270300
     2  I          0.53459110       0.25609100       0.83729700
     3  I          0.01915880       0.47014120       0.24924300
     4  I          0.98084120       0.52985880       0.75075700
     5  I          0.68056880       0.28194110       0.30119300
     6  I          0.31943120       0.71805890       0.69880700
     7  F          0.66781000       0.52031000       0.23053000
     8  F          0.33219000       0.47969000       0.76947000
     9  F          0.15849000       0.66781000       0.18913000
    10  F          0.84151000       0.33219000       0.81087000
    11  F          0.32578900       0.30651000       0.29613000
    12  F          0.67421100       0.69349000       0.70387000
    13  C          0.26788400       0.58331300       0.21334000
    14  C          0.73211600       0.41668700       0.78666000
    15  C          0.49938400       0.41031400       0.26384000
    16  C          0.50061600       0.58968600       0.73616000
    17  C          0.35778300       0.40231500       0.26834000
    18  C          0.64221700       0.59768500       0.73166000
    19  C          0.52668300       0.50971900       0.23414000
    20  C          0.47331700       0.49028100       0.76586000
    21  C          0.23588500       0.48341500       0.24254000
    22  C          0.76411500       0.51658500       0.75746000
    23  C          0.41708500       0.59231300       0.20724000
    24  C          0.58291500       0.40768700       0.79276000
    25  I          0.66130120       0.27775900       0.65906300
    26  I          0.33869880       0.72224100       0.34093700
    27  I          0.78836150       0.86294880       0.81896400
    28  I          0.21163850       0.13705120       0.18103600
    29  I          0.27849160       0.10679830       0.74624600
    30  I          0.72150840       0.89320170       0.25375400
    31  F          0.63771000       0.05608900       0.73454000
    32  F          0.36229000       0.94391100       0.26546000
    33  F          0.10171200       0.93298800       0.80694000
    34  F          0.89828800       0.06701200       0.19306000
    35  F          0.00701200       0.25129000       0.67844000
    36  F         -0.00701200       0.74871000       0.32156000
    37  C          0.77441600       0.06688300       0.73785000
    38  C          0.22558400       0.93311700       0.26215000
    39  C          0.81641600       0.15708600       0.70594000
    40  C          0.18358400       0.84291400       0.29406000
    41  C          0.01111700       0.00858400       0.77425000
    42  C          0.98888300      -0.00858400       0.22575000
    43  C          0.06641800       0.09278300       0.74355000
    44  C          0.93358200       0.90721700       0.25645000
    45  C          0.87071800      -0.00681500       0.77145000
    46  C          0.12928200       0.00681500       0.22855000
    47  C          0.95891800       0.16698400       0.71006000
    48  C          0.04108200       0.83301600       0.28994000
    49  N          0.59811700       0.70021400       0.86905000
    50  N          0.40188300       0.29978600       0.13095000
    51  C          0.95398200       0.30441400       0.95726000
    52  C          0.04601800       0.69558600       0.04274000
    53  C          0.37421700       0.58571400       0.90056000
    54  C          0.62578300       0.41428600       0.09944000
    55  N          0.56868300       0.92291500       0.09985000
    56  N          0.43131700       0.07708500       0.90015000
    57  C          0.75918100       0.19711600       0.96625000
    58  C          0.24081900       0.80288400       0.03375000
    59  H          0.67817300       0.17754700       0.95431000
    60  H          0.32182700       0.82245300       0.04569000
    61  C          0.83538300       0.27261600       0.93725000
    62  C          0.16461700       0.72738400       0.06275000
    63  H          0.80809500       0.30096500       0.90554700
    64  H          0.19190500       0.69903500       0.09445300
    65  C          0.25561400       0.52301500       0.91326000
    66  C          0.74438600       0.47698500       0.08674000
    67  C          0.80628400       0.15161300       0.01335000
    68  C          0.19371600       0.84838700       0.98665000
    69  C          0.25511800       0.44941800       0.95785000
    70  C          0.74488200       0.55058200       0.04215000
    71  H          0.32796400       0.44583000       0.97985600
    72  H          0.67203600       0.55417000       0.02014400
    73  C          0.04661500       0.38131200       0.93596000
    74  C          0.95338500       0.61868800       0.06404000
    75  C          0.72668500       0.07001300       0.04344000
    76  C          0.27331500       0.92998700       0.95656000
    77  C          0.15201300       0.38251300       0.97036000
    78  C          0.84798700       0.61748700       0.02964000
    79  C          0.13061500       0.30071300       0.01544000
    80  C          0.86938500       0.69928700       0.98456000
    81  H          0.18581100       0.28215700       0.04333900
    82  H          0.81418900       0.71784300       0.95666100
    83  C          0.15061500       0.51801500       0.88016000
    84  C          0.84938500       0.48198500       0.11984000
    85  H          0.14996100       0.56217000       0.84986900
    86  H          0.85003900       0.43783000       0.15013100
    87  C          0.34411700       0.68941500       0.86715000
    88  C          0.65588300       0.31058500       0.13285000
    89  H          0.24951400       0.72099700       0.85399900
    90  H          0.75048600       0.27900300       0.14600100
    91  C         -0.00021800       0.25651500       0.00445000
    92  C          0.00021800       0.74348500      -0.00445000
    93  C          0.04751700       0.44991600       0.89085000
    94  C          0.95248300       0.55008400       0.10915000
    95  H          0.97863400       0.44976900       0.86803200
    96  H          0.02136600       0.55023100       0.13196800
    97  C          0.92888500       0.18081500       0.03264000
    98  C          0.07111500       0.81918500       0.96736000
    99  H          0.96039600       0.14913100       0.06365000
   100  H          0.03960400       0.85086900       0.93635000
   101  C          0.51571800       0.54261500       0.91795000
   102  C          0.48428200       0.45738500       0.08205000
   103  H          0.53856400       0.47336400       0.94068100
   104  H          0.46143600       0.52663600       0.05931900
   105  C          0.49580000       0.01831800       0.07036000
   106  C          0.50420000       0.98168200       0.92964000
   107  H          0.39144300       0.03665700       0.06931900
   108  H          0.60855700       0.96334300       0.93068100
   109  C          0.45820000       0.74551900       0.85384000
   110  C          0.54180000       0.25448100       0.14616000
   111  H          0.43535100       0.81870900       0.83313500
   112  H          0.56464900       0.18129100       0.16686500
   113  C          0.56880000       0.09301800       0.04035000
   114  C          0.43120000       0.90698200       0.95965000
   115  H          0.51516100       0.15668100       0.01870100
   116  H          0.48483900       0.84331900       0.98129900
   117  C          0.79880000       0.97781600       0.07647000
   118  C          0.20120000       0.02218400       0.92353000
   119  H          0.90099400       0.96388500       0.08120400
   120  H          0.09900600       0.03611500       0.91879600
   121  C          0.62631800       0.60101500       0.90215000
   122  C          0.37368200       0.39898500       0.09785000
   123  H          0.72182400       0.57054700       0.91486600
   124  H          0.27817600       0.42945300       0.08513400
   125  C          0.71580000       0.90291700       0.10356000
   126  C          0.28420000       0.09708300       0.89644000
   127  H          0.76768900       0.83694000       0.12473000
   128  H          0.23231100       0.16306000       0.87527000
   129  N          0.40061600       0.42078500       0.60544000
   130  N          0.59938400       0.57921500       0.39456000
   131  N          0.92948500       0.12441600       0.35284000
   132  N          0.07051500       0.87558400       0.64716000
   133  C          0.64411900       0.72088400       0.53535000
   134  C          0.35588100       0.27911600       0.46465000
   135  C          0.03221700       0.96038500       0.41406000
   136  C          0.96778300       0.03961500       0.58594000
   137  H          0.02075100       0.89040000       0.43331800
   138  H          0.97924900       0.10960000       0.56668200
   139  C          0.76841700       0.73398500       0.50585000
   140  C          0.23158300       0.26601500       0.49415000
   141  C          0.91771700       0.68088500       0.51715000
   142  C          0.08228300       0.31911500       0.48285000
   143  H         -0.00343900       0.69794000       0.49742100
   144  H          0.00343900       0.30206000       0.50257900
   145  C          0.28131400       0.93148700       0.44974000
   146  C          0.71868600       0.06851300       0.55026000
   147  C          0.70731900       0.82798500       0.46225000
   148  C          0.29268100       0.17201500       0.53775000
   149  H          0.76213900       0.86241700       0.43803600
   150  H          0.23786100       0.13758300       0.56196400
   151  C          0.82281900       0.57768400       0.58745000
   152  C          0.17718100       0.42231600       0.41255000
   153  H          0.84156200       0.51993400       0.61447500
   154  H          0.15843800       0.48006600       0.38552500
   155  C          0.15371700      -0.00041600       0.41755000
   156  C          0.84628300       0.00041600       0.58245000
   157  C          0.50631800       0.79398500       0.51275000
   158  C          0.49368200       0.20601500       0.48725000
   159  C          0.92180000       0.02501700       0.38125000
   160  C          0.07820000       0.97498300       0.61875000
   161  H          0.83789800      -0.00429700       0.37943400
   162  H          0.16210200       0.00429700       0.62056600
   163  C          0.43091700       0.92068500       0.43825000
   164  C          0.56908300       0.07931500       0.56175000
   165  H          0.45739400       0.96224100       0.40966200
   166  H          0.54260600       0.03775900       0.59033800
   167  C          0.37320000       0.47348100       0.56096000
   168  C          0.62680000       0.52651900       0.43904000
   169  H          0.45620300       0.47158000       0.53932600
   170  H          0.54379700       0.52842000       0.46067400
   171  C          0.54231800       0.85048500       0.46765000
   172  C          0.45768200       0.14951500       0.53235000
   173  C          0.94511700       0.59888400       0.56015000
   174  C          0.05488300       0.40111600       0.43985000
   175  C          0.22720000       0.53288100       0.54356000
   176  C          0.77280000       0.46711900       0.45644000
   177  H          0.21442600       0.56894900       0.51170500
   178  H          0.78557400       0.43105100       0.48829500
   179  C          0.24020000       0.87178200       0.49556000
   180  C          0.75980000       0.12821800       0.50444000
   181  H          0.13933900       0.87816400       0.50429800
   182  H          0.86066100       0.12183600       0.49570200
   183  C          0.16820000       0.10391500       0.38806000
   184  C          0.83180000       0.89608500       0.61194000
   185  H          0.24888100       0.13699400       0.39018000
   186  H          0.75111900       0.86300600       0.60982000
   187  C          0.10171700       0.53568600       0.57524000
   188  C          0.89828300       0.46431400       0.42476000
   189  C          0.05220000       0.15771900       0.35396000
   190  C          0.94780000       0.84228100       0.64604000
   191  H          0.06530400       0.22087000       0.33110800
   192  H          0.93469600       0.77913000       0.66889200
   193  C          0.35401700       0.80508300       0.52594000
   194  C          0.64598300       0.19491700       0.47406000
   195  H          0.32897800       0.76708800       0.55545100
   196  H          0.67102200       0.23291200       0.44454900
   197  C          0.67321800       0.63788100       0.57685000
   198  C          0.32678200       0.36211900       0.42315000
   199  H          0.59403400       0.62309300       0.59691300
   200  H          0.40596600       0.37690700       0.40308700
   201  C          0.27720000       0.42480000       0.63507000
   202  C          0.72280000       0.57520000       0.36493000
   203  H          0.29018600       0.39587900       0.66749300
   204  H          0.70981400       0.60412100       0.33250700
   205  C          0.13241900       0.47180000       0.61916000
   206  C          0.86758100       0.52820000       0.38084000
   207  H          0.05262100       0.45818100       0.63934700
   208  H          0.94737900       0.54181900       0.36065300
