data_XISBUA
_symmetry_space_group_name_H-M    'P1'
_symmetry_Int_Tables_number       1
loop_
_symmetry_equiv_pos_site_id
_symmetry_equiv_pos_as_xyz
1 x,y,z
_cell_length_a                   5.80514
_cell_length_b                   10.33716
_cell_length_c                   19.278211
_cell_angle_alpha                90.0
_cell_angle_beta                 98.3542
_cell_angle_gamma                90.0
loop_
_atom_site_label
_atom_site_type_symbol
_atom_site_fract_x
_atom_site_fract_y
_atom_site_fract_z
     1  Cl         0.15925500       0.27640300       0.24818200
     2  Cl         0.84074500       0.77640300       0.25181800
     3  Cl         0.84074500       0.72359700       0.75181800
     4  Cl         0.15925500       0.22359700       0.74818200
     5  Cl        -0.00000000       0.50000000       0.50000000
     6  Cl         0.00000000      -0.00000000       0.00000000
     7  N          0.45792000       0.47060110       0.33684600
     8  N          0.54208000       0.97060110       0.16315400
     9  N          0.54208000       0.52939890       0.66315400
    10  N          0.45792000       0.02939890       0.83684600
    11  H          0.35830000       0.42061800       0.30359000
    12  H          0.64170000       0.92061800       0.19641000
    13  H          0.64170000       0.57938200       0.69641000
    14  H          0.35830000       0.07938200       0.80359000
    15  N          0.42701190       0.91025110       0.44715600
    16  N          0.57298810       0.41025110       0.05284400
    17  N          0.57298810       0.08974890       0.55284400
    18  N          0.42701190       0.58974890       0.94715600
    19  C          0.69332000       0.46572140       0.31508800
    20  C          0.30668000       0.96572140       0.18491200
    21  C          0.30668000       0.53427860       0.68491200
    22  C          0.69332000       0.03427860       0.81508800
    23  H          0.73319600       0.37579400       0.30596900
    24  H          0.26680400       0.87579400       0.19403100
    25  H          0.26680400       0.62420600       0.69403100
    26  H          0.73319600       0.12420600       0.80596900
    27  H          0.80808700       0.50110800       0.35258300
    28  H          0.19191300       0.00110800       0.14741700
    29  H          0.19191300       0.49889200       0.64741700
    30  H          0.80808700      -0.00110800       0.85258300
    31  H          0.69376200       0.51704700       0.27236200
    32  H          0.30623800       0.01704700       0.22763800
    33  H          0.30623800       0.48295300       0.72763800
    34  H          0.69376200       0.98295300       0.77236200
    35  C          0.35682000       0.60390130       0.33618700
    36  C          0.64318000       0.10390130       0.16381300
    37  C          0.64318000       0.39609870       0.66381300
    38  C          0.35682000       0.89609870       0.83618700
    39  H          0.18782800       0.59667800       0.33823300
    40  H          0.81217200       0.09667800       0.16176700
    41  H          0.81217200       0.40332200       0.66176700
    42  H          0.18782800       0.90332200       0.83823300
    43  H          0.37525900       0.64599800       0.29119900
    44  H          0.62474100       0.14599800       0.20880100
    45  H          0.62474100       0.35400200       0.70880100
    46  H          0.37525900       0.85400200       0.79119900
    47  C          0.46612000       0.69040130       0.39610700
    48  C          0.53388000       0.19040130       0.10389300
    49  C          0.53388000       0.30959870       0.60389300
    50  C          0.46612000       0.80959870       0.89610700
    51  H          0.63387500       0.70261200       0.39367700
    52  H          0.36612500       0.20261200       0.10632300
    53  H          0.36612500       0.29738800       0.60632300
    54  H          0.63387500       0.79738800       0.89367700
    55  H          0.45007300       0.64999400       0.44171900
    56  H          0.54992700       0.14999400       0.05828100
    57  H          0.54992700       0.35000600       0.55828100
    58  H          0.45007300       0.85000600       0.94171900
    59  C          0.34062000       0.82082130       0.38931700
    60  C          0.65938000       0.32082130       0.11068300
    61  C          0.65938000       0.17917870       0.61068300
    62  C          0.34062000       0.67917870       0.88931700
    63  H          0.36225600       0.86118700       0.34413000
    64  H          0.63774400       0.36118700       0.15587000
    65  H          0.63774400       0.13881300       0.65587000
    66  H          0.36225600       0.63881300       0.84413000
    67  H          0.17179400       0.80648500       0.38881600
    68  H          0.82820600       0.30648500       0.11118400
    69  H          0.82820600       0.19351500       0.61118400
    70  H          0.17179400       0.69351500       0.88881600
    71  C          0.31992000       0.91331120       0.50682700
    72  C          0.68008000       0.41331120      -0.00682700
    73  C          0.68008000       0.08668880       0.49317300
    74  C          0.31992000       0.58668880       0.00682700
    75  C          0.60922000      -0.00667880       0.44019700
    76  C          0.39078000       0.49332120       0.05980300
    77  C          0.39078000       0.00667880       0.55980300
    78  C          0.60922000       0.50667880       0.94019700
    79  C          0.27303000       0.01336140       0.61843700
    80  C          0.72697000       0.51336140       0.88156300
    81  C          0.72697000      -0.01336140       0.38156300
    82  C          0.27303000       0.48663860       0.11843700
    83  H          0.31357400       0.07848500       0.65280500
    84  H          0.68642600       0.57848500       0.84719500
    85  H          0.68642600       0.92151500       0.34719500
    86  H          0.31357400       0.42151500       0.15280500
    87  C          0.09963000       0.92655150       0.62649800
    88  C          0.90037000       0.42655150       0.87350200
    89  C          0.90037000       0.07344850       0.37350200
    90  C          0.09963000       0.57344850       0.12649800
    91  H          0.02134300       0.93172800       0.66638800
    92  H         -0.02134300       0.43172800       0.83361200
    93  H         -0.02134300       0.06827200       0.33361200
    94  H          0.02134300       0.56827200       0.16638800
    95  C          0.03843000       0.83100140       0.57627900
    96  C          0.96157000       0.33100140       0.92372100
    97  C          0.96157000       0.16899860       0.42372100
    98  C          0.03843000       0.66899860       0.07627900
    99  H          0.92223500       0.76942300       0.58303500
   100  H          0.07776500       0.26942300       0.91696500
   101  H          0.07776500       0.23057700       0.41696500
   102  H          0.92223500       0.73057700       0.08303500
   103  C          0.14422000       0.82474140       0.51702800
   104  C          0.85578000       0.32474140       0.98297200
   105  C          0.85578000       0.17525860       0.48297200
   106  C          0.14422000       0.67525860       0.01702800
   107  H          0.09821500       0.76014400       0.48274100
   108  H          0.90178500       0.26014400       0.01725900
   109  H          0.90178500       0.23985600       0.51725900
   110  H          0.09821500       0.73985600       0.98274100
   111  C          0.45612000       0.40115140       0.40433700
   112  C          0.54388000       0.90115140       0.09566300
   113  C          0.54388000       0.59884860       0.59566300
   114  C          0.45612000       0.09884860       0.90433700
   115  H          0.30915500       0.41838700       0.42200300
   116  H          0.69084500       0.91838700       0.07799700
   117  H          0.69084500       0.58161300       0.57799700
   118  H          0.30915500       0.08161300       0.92200300
   119  H          0.58641300       0.43131500       0.43858900
   120  H          0.41358700       0.93131500       0.06141100
   121  H          0.41358700       0.56868500       0.56141100
   122  H          0.58641300       0.06868500       0.93858900
   123  H          0.47168200       0.30796800       0.39685000
   124  H          0.52831800       0.80796800       0.10315000
   125  H          0.52831800       0.69203200       0.60315000
   126  H          0.47168200       0.19203200       0.89685000
