data_XISFAJ
_symmetry_space_group_name_H-M    'P1'
_symmetry_Int_Tables_number       1
loop_
_symmetry_equiv_pos_site_id
_symmetry_equiv_pos_as_xyz
1 x,y,z
_cell_length_a                   12.803115
_cell_length_b                   9.511713
_cell_length_c                   17.8563
_cell_angle_alpha                90.0
_cell_angle_beta                 107.9738
_cell_angle_gamma                90.0
loop_
_atom_site_label
_atom_site_type_symbol
_atom_site_fract_x
_atom_site_fract_y
_atom_site_fract_z
     1  I          0.37071100       0.47372130       0.37690800
     2  I          0.62928900       0.47372130       0.12309200
     3  I          0.87071100       0.97372130       0.37690800
     4  I          0.12928900       0.97372130       0.12309200
     5  I          0.62928900       0.52627870       0.62309200
     6  I          0.37071100       0.52627870       0.87690800
     7  I          0.12928900       0.02627870       0.62309200
     8  I          0.87071100       0.02627870       0.87690800
     9  C          0.40941500       0.65320000       0.33271100
    10  C          0.59058500       0.65320000       0.16728900
    11  C          0.90941500       0.15320000       0.33271100
    12  C          0.09058500       0.15320000       0.16728900
    13  C          0.59058500       0.34680000       0.66728900
    14  C          0.40941500       0.34680000       0.83271100
    15  C          0.09058500       0.84680000       0.66728900
    16  C          0.90941500       0.84680000       0.83271100
    17  C          0.43521800       0.75520000       0.30441200
    18  C          0.56478200       0.75520000       0.19558800
    19  C          0.93521800       0.25520000       0.30441200
    20  C          0.06478200       0.25520000       0.19558800
    21  C          0.56478200       0.24480000       0.69558800
    22  C          0.43521800       0.24480000       0.80441200
    23  C          0.06478200       0.74480000       0.69558800
    24  C          0.93521800       0.74480000       0.80441200
    25  C          0.46641200       0.88261700       0.27539000
    26  C          0.53358800       0.88261700       0.22461000
    27  C          0.96641200       0.38261700       0.27539000
    28  C          0.03358800       0.38261700       0.22461000
    29  C          0.53358800       0.11738300       0.72461000
    30  C          0.46641200       0.11738300       0.77539000
    31  C          0.03358800       0.61738300       0.72461000
    32  C          0.96641200       0.61738300       0.77539000
    33  C          0.43321900       0.00771800       0.29801200
    34  C          0.56678100       0.00771800       0.20198800
    35  C          0.93321900       0.50771800       0.29801200
    36  C          0.06678100       0.50771800       0.20198800
    37  C          0.56678100      -0.00771800       0.70198800
    38  C          0.43321900      -0.00771800       0.79801200
    39  C          0.06678100       0.49228200       0.70198800
    40  C          0.93321900       0.49228200       0.79801200
    41  H          0.38738200       0.00920900       0.32955200
    42  H          0.61261800       0.00920900       0.17044800
    43  H          0.88738200       0.50920900       0.32955200
    44  H          0.11261800       0.50920900       0.17044800
    45  H          0.61261800      -0.00920900       0.67044800
    46  H          0.38738200      -0.00920900       0.82955200
    47  H          0.11261800       0.49079100       0.67044800
    48  H          0.88738200       0.49079100       0.82955200
    49  C          0.46841900       0.13191900       0.27361200
    50  C          0.53158100       0.13191900       0.22638800
    51  C          0.96841900       0.63191900       0.27361200
    52  C          0.03158100       0.63191900       0.22638800
    53  C          0.53158100       0.86808100       0.72638800
    54  C          0.46841900       0.86808100       0.77361200
    55  C          0.03158100       0.36808100       0.72638800
    56  C          0.96841900       0.36808100       0.77361200
    57  H          0.44765900       0.21713300       0.29025000
    58  H          0.55234100       0.21713300       0.20975000
    59  H          0.94765900       0.71713300       0.29025000
    60  H          0.05234100       0.71713300       0.20975000
    61  H          0.55234100       0.78286700       0.70975000
    62  H          0.44765900       0.78286700       0.79025000
    63  H          0.05234100       0.28286700       0.70975000
    64  H          0.94765900       0.28286700       0.79025000
    65  N          0.31811300       0.21021600       0.43181000
    66  N          0.68188700       0.21021600       0.06819000
    67  N          0.81811300       0.71021600       0.43181000
    68  N          0.18188700       0.71021600       0.06819000
    69  N          0.68188700       0.78978400       0.56819000
    70  N          0.31811300       0.78978400       0.93181000
    71  N          0.18188700       0.28978400       0.56819000
    72  N          0.81811300       0.28978400       0.93181000
    73  C          0.37861700       0.13520000       0.49241200
    74  C          0.62138300       0.13520000       0.00758800
    75  C          0.87861700       0.63520000       0.49241200
    76  C          0.12138300       0.63520000       0.00758800
    77  C          0.62138300       0.86480000       0.50758800
    78  C          0.37861700       0.86480000      -0.00758800
    79  C          0.12138300       0.36480000       0.50758800
    80  C          0.87861700       0.36480000      -0.00758800
    81  H          0.44257700       0.17556700       0.52508700
    82  H          0.55742300       0.17556700       0.97491300
    83  H          0.94257700       0.67556700       0.52508700
    84  H          0.05742300       0.67556700       0.97491300
    85  H          0.55742300       0.82443300       0.47491300
    86  H          0.44257700       0.82443300       0.02508700
    87  H          0.05742300       0.32443300       0.47491300
    88  H          0.94257700       0.32443300       0.02508700
    89  C          0.35281600      -0.00020000       0.51021300
    90  C          0.64718400      -0.00020000       0.98978700
    91  C          0.85281600       0.49980000       0.51021300
    92  C          0.14718400       0.49980000       0.98978700
    93  C          0.64718400       0.00020000       0.48978700
    94  C          0.35281600       0.00020000       0.01021300
    95  C          0.14718400       0.50020000       0.48978700
    96  C          0.85281600       0.50020000       0.01021300
    97  H          0.39531300       0.95341700       0.55500900
    98  H          0.60468700       0.95341700       0.94499100
    99  H          0.89531300       0.45341700       0.55500900
   100  H          0.10468700       0.45341700       0.94499100
   101  H          0.60468700       0.04658300       0.44499100
   102  H          0.39531300       0.04658300       0.05500900
   103  H          0.10468700       0.54658300       0.44499100
   104  H          0.89531300       0.54658300       0.05500900
   105  C          0.26011700       0.93780000       0.45801200
   106  C          0.73988300       0.93780000       0.04198800
   107  C          0.76011700       0.43780000       0.45801200
   108  C          0.23988300       0.43780000       0.04198800
   109  C          0.73988300       0.06220000       0.54198800
   110  C          0.26011700       0.06220000       0.95801200
   111  C          0.23988300       0.56220000       0.54198800
   112  C          0.76011700       0.56220000       0.95801200
   113  C          0.20161500       0.01001900       0.39731200
   114  C          0.79838500       0.01001900       0.10268800
   115  C          0.70161500       0.51001900       0.39731200
   116  C          0.29838500       0.51001900       0.10268800
   117  C          0.79838500      -0.01001900       0.60268800
   118  C          0.20161500      -0.01001900       0.89731200
   119  C          0.29838500       0.48998100       0.60268800
   120  C          0.70161500       0.48998100       0.89731200
   121  H          0.13984300       0.97018500       0.36159700
   122  H          0.86015700       0.97018500       0.13840300
   123  H          0.63984300       0.47018500       0.36159700
   124  H          0.36015700       0.47018500       0.13840300
   125  H          0.86015700       0.02981500       0.63840300
   126  H          0.13984300       0.02981500       0.86159700
   127  H          0.36015700       0.52981500       0.63840300
   128  H          0.63984300       0.52981500       0.86159700
   129  C          0.23181500       0.14420000       0.38661200
   130  C          0.76818500       0.14420000       0.11338800
   131  C          0.73181500       0.64420000       0.38661200
   132  C          0.26818500       0.64420000       0.11338800
   133  C          0.76818500       0.85580000       0.61338800
   134  C          0.23181500       0.85580000       0.88661200
   135  C          0.26818500       0.35580000       0.61338800
   136  C          0.73181500       0.35580000       0.88661200
   137  H          0.18716700       0.19335200       0.34347700
   138  H          0.81283300       0.19335200       0.15652300
   139  H          0.68716700       0.69335200       0.34347700
   140  H          0.31283300       0.69335200       0.15652300
   141  H          0.81283300       0.80664800       0.65652300
   142  H          0.18716700       0.80664800       0.84347700
   143  H          0.31283300       0.30664800       0.65652300
   144  H          0.68716700       0.30664800       0.84347700
   145  C          0.22920000       0.78780000       0.47281300
   146  C          0.77080000       0.78780000       0.02718700
   147  C          0.72920000       0.28780000       0.47281300
   148  C          0.27080000       0.28780000       0.02718700
   149  C          0.77080000       0.21220000       0.52718700
   150  C          0.22920000       0.21220000       0.97281300
   151  C          0.27080000       0.71220000       0.52718700
   152  C          0.72920000       0.71220000       0.97281300
   153  H          0.17036300       0.74930400       0.43380900
   154  H          0.82963700       0.74930400       0.06619100
   155  H          0.67036300       0.24930400       0.43380900
   156  H          0.32963700       0.24930400       0.06619100
   157  H          0.82963700       0.25069600       0.56619100
   158  H          0.17036300       0.25069600       0.93380900
   159  H          0.32963700       0.75069600       0.56619100
   160  H          0.67036300       0.75069600       0.93380900
