data_XISFEN
_symmetry_space_group_name_H-M    'P1'
_symmetry_Int_Tables_number       1
loop_
_symmetry_equiv_pos_site_id
_symmetry_equiv_pos_as_xyz
1 x,y,z
_cell_length_a                   7.564112
_cell_length_b                   8.361912
_cell_length_c                   17.5003
_cell_angle_alpha                94.1268
_cell_angle_beta                 96.4668
_cell_angle_gamma                106.1537
loop_
_atom_site_label
_atom_site_type_symbol
_atom_site_fract_x
_atom_site_fract_y
_atom_site_fract_z
     1  I          0.96190700       0.61490200       0.13100200
     2  I          0.03809300       0.38509800       0.86899800
     3  I          0.47319300       0.35547300       0.37720200
     4  I          0.52680700       0.64452700       0.62279800
     5  C          0.22644000       0.74994000       0.17253180
     6  C          0.77356000       0.25006000       0.82746820
     7  C          0.38274000       0.82464000       0.19601170
     8  C          0.61726000       0.17536000       0.80398830
     9  C          0.57274000       0.91644000       0.22124160
    10  C          0.42726000       0.08356000       0.77875840
    11  C          0.64455000       0.07674000       0.19732000
    12  C          0.35545000       0.92326000       0.80268000
    13  H          0.56747900       0.12344900       0.16669300
    14  H          0.43252100       0.87655100       0.83330700
    15  C          0.82797000       0.16315000       0.21923000
    16  C          0.17203000       0.83685000       0.78077000
    17  H          0.87421500       0.26964200       0.20430800
    18  H          0.12578500       0.73035800       0.79569200
    19  C          0.94446000       0.09426000       0.26303000
    20  C          0.05554000       0.90574000       0.73697000
    21  H          0.06981300       0.15232000       0.27522800
    22  H          0.93018700       0.84768000       0.72477200
    23  C          0.87845000       0.94245000       0.28862000
    24  C          0.12155000       0.05755000       0.71138000
    25  H          0.95809800       0.89878000       0.31940800
    26  H          0.04190200       0.10122000       0.68059200
    27  C          0.68974000       0.85054000       0.26881170
    28  C          0.31026000       0.14946000       0.73118830
    29  C          0.62144000       0.69414000       0.29916180
    30  C          0.37856000       0.30586000       0.70083820
    31  C          0.56935000       0.56874000       0.32790190
    32  C          0.43065000       0.43126000       0.67209810
    33  N          0.59846000       0.40573000       0.07703170
    34  N          0.40154000       0.59427000       0.92296830
    35  C          0.45605000       0.40444000       0.11392000
    36  C          0.54395000       0.59556000       0.88608000
    37  H          0.47384900       0.48498500       0.15576400
    38  H          0.52615100       0.51501500       0.84423600
    39  C          0.28186000       0.29124000       0.09472000
    40  C          0.71814000       0.70876000       0.90528000
    41  H          0.18669600       0.29560500       0.12330500
    42  H          0.81330400       0.70439500       0.87669500
    43  C          0.25126000       0.17244000       0.03268180
    44  C          0.74874000       0.82756000       0.96731820
    45  C          0.39855000       0.17494000      -0.00732000
    46  C          0.60145000       0.82506000       0.00732000
    47  H          0.38382500       0.09843200       0.94950000
    48  H          0.61617500       0.90156800       0.05050000
    49  C          0.56825000       0.29164000       0.01722000
    50  C          0.43175000       0.70836000       0.98278000
    51  H          0.66679500       0.28971800       0.99011700
    52  H          0.33320500       0.71028200       0.00988300
    53  C          0.07265000       0.05054000       0.00952000
    54  C          0.92735000       0.94946000       0.99048000
    55  N          0.32564000       0.04774000       0.43824170
    56  N          0.67436000       0.95226000       0.56175830
    57  C          0.25375000       0.02515000       0.50312000
    58  C          0.74625000       0.97485000       0.49688000
    59  H          0.26522600       0.11908300       0.53723000
    60  H          0.73477400       0.88091700       0.46277000
    61  C          0.16275000       0.87125000       0.52342000
    62  C          0.83725000       0.12875000       0.47658000
    63  H          0.11591000       0.86295600       0.57036600
    64  H          0.88409000       0.13704400       0.42963400
    65  C          0.14104000       0.72976000       0.47412000
    66  C          0.85896000       0.27024000       0.52588000
    67  C          0.21875000       0.75076000       0.40682000
    68  C          0.78125000       0.24924000       0.59318000
    69  H          0.21058500       0.65891400       0.37188000
    70  H          0.78941500       0.34108600       0.62812000
    71  C          0.30885000       0.91075000       0.39202000
    72  C          0.69115000       0.08925000       0.60798000
    73  H          0.36114200       0.92306400       0.34634000
    74  H          0.63885800       0.07693600       0.65366000
    75  C          0.04135000       0.56586000       0.49222000
    76  C          0.95865000       0.43414000       0.50778000
