data_XITMIA
_symmetry_space_group_name_H-M    'P1'
_symmetry_Int_Tables_number       1
loop_
_symmetry_equiv_pos_site_id
_symmetry_equiv_pos_as_xyz
1 x,y,z
_cell_length_a                   5.894515
_cell_length_b                   5.43881
_cell_length_c                   23.7734
_cell_angle_alpha                90.0
_cell_angle_beta                 93.062
_cell_angle_gamma                90.0
loop_
_atom_site_label
_atom_site_type_symbol
_atom_site_fract_x
_atom_site_fract_y
_atom_site_fract_z
     1  S          0.55885180       0.60622160       0.71405400
     2  S          0.44114820       0.10622160       0.28594600
     3  O          0.67064000       0.90075000       0.83642900
     4  O          0.32936000       0.40075000       0.16357100
     5  C          0.74155000       0.95715000       0.78568130
     6  C          0.25845000       0.45715000       0.21431870
     7  C          0.55925000       0.92006000       0.73945140
     8  C          0.44075000       0.42006000       0.26054860
     9  H          0.58514900       0.03124000       0.70856400
    10  H          0.41485100       0.53124000       0.29143600
    11  H          0.41207100       0.95819000       0.75365600
    12  H          0.58792900       0.45819000       0.24634400
    13  C          0.83216000       0.78427000       0.62927140
    14  C          0.16784000       0.28427000       0.37072860
    15  O          0.93224000       0.02366000       0.77732110
    16  O          0.06776000       0.52366000       0.22267890
    17  C          0.82048000       0.59959000       0.67666170
    18  C          0.17952000       0.09959000       0.32333830
    19  H          0.94716000       0.62881400       0.70354900
    20  H          0.05284000       0.12881400       0.29645100
    21  H          0.83891600       0.43600900       0.66127600
    22  H          0.16108400       0.93600900       0.33872400
    23  C          0.85478000       0.12391000       0.54170180
    24  C          0.14522000       0.62391000       0.45829820
    25  H          0.86207200       0.23728400       0.51257700
    26  H          0.13792800       0.73728400       0.48742300
    27  C          0.01497000       0.94071000       0.62628190
    28  C         -0.01497000       0.44071000       0.37371810
    29  H          0.13205600       0.93427000       0.65404900
    30  H          0.86794400       0.43427000       0.34595100
    31  C          0.65968000       0.80271000       0.58734170
    32  C          0.34032000       0.30271000       0.41265830
    33  H          0.53381500       0.69991400       0.58825900
    34  H          0.46618500       0.19991400       0.41174100
    35  C          0.02688000       0.10831100       0.58232000
    36  C          0.97312000       0.60831100       0.41768000
    37  H          0.15278500       0.21033700       0.58059700
    38  H          0.84721500       0.71033700       0.41940300
    39  C          0.67279000       0.97191100       0.54432000
    40  C          0.32721000       0.47191100       0.45568000
    41  H          0.55516600      -0.01815900       0.51669500
    42  H          0.44483400       0.48184100       0.48330500
    43  H          0.77160000       0.91580000       0.86281800
    44  H          0.22840000       0.41580000       0.13718200
    45  O          0.28273000       0.89983000       0.97335800
    46  O          0.71727000       0.39983000       0.02664200
    47  N          0.30323000       0.41674000       0.95103900
    48  N          0.69677000       0.91674000       0.04896100
    49  O          0.94677000       0.95893000       0.92739900
    50  O          0.05323000       0.45893000       0.07260100
    51  C          0.11374000       0.82744000       0.94372100
    52  C          0.88626000       0.32744000       0.05627900
    53  C          0.10414000       0.55644000       0.92496100
    54  C          0.89586000       0.05644000       0.07503900
    55  H          0.96214200       0.48161800       0.93615200
    56  H          0.03785800      -0.01838200       0.06384800
    57  C          0.32415000       0.35306000       0.85337110
    58  C          0.67585000       0.85306000       0.14662890
    59  H          0.27271000       0.18376800       0.85054500
    60  H          0.72729000       0.68376800       0.14945500
    61  H          0.40470000       0.39378000       0.82010000
    62  H          0.59530000       0.89378000       0.17990000
    63  C          0.47364000       0.39266000       0.90649120
    64  C          0.52636000       0.89266000       0.09350880
    65  H          0.57381500       0.25359700       0.91393800
    66  H          0.42618500       0.75359700       0.08606200
    67  H          0.56404400       0.54082900       0.90389600
    68  H          0.43595600       0.04082900       0.09610400
    69  C          0.12395000       0.52825000       0.86023120
    70  C          0.87605000       0.02825000       0.13976880
    71  H         -0.01484100       0.45992800       0.84284800
    72  H          0.01484100       0.95992800       0.15715200
    73  H          0.15262700       0.68613900       0.84304400
    74  H          0.84737300       0.18613900       0.15695600
    75  H          0.36150000       0.48560000       0.98041500
    76  H          0.63850000      -0.01440000       0.01958500
    77  H          0.26750000       0.26260000       0.96221200
    78  H          0.73250000       0.76260000       0.03778800
