data_XITMOG
_symmetry_space_group_name_H-M    'P1'
_symmetry_Int_Tables_number       1
loop_
_symmetry_equiv_pos_site_id
_symmetry_equiv_pos_as_xyz
1 x,y,z
_cell_length_a                   30.9002
_cell_length_b                   8.83176
_cell_length_c                   5.20494
_cell_angle_alpha                90.0
_cell_angle_beta                 90.0
_cell_angle_gamma                90.0
loop_
_atom_site_label
_atom_site_type_symbol
_atom_site_fract_x
_atom_site_fract_y
_atom_site_fract_z
     1  S          0.10568200       0.70234600       0.16886130
     2  S          0.89431800       0.29765400       0.66886130
     3  S          0.60568200       0.79765400       0.16886130
     4  S          0.39431800       0.20234600       0.66886130
     5  O          0.18956500       0.52800180       0.89756000
     6  O          0.81043500       0.47199820       0.39756000
     7  O          0.68956500       0.97199820       0.89756000
     8  O          0.31043500       0.02800180       0.39756000
     9  O          0.13967600       0.34705190       0.95506000
    10  O          0.86032400       0.65294810       0.45506000
    11  O          0.63967600       0.15294810       0.95506000
    12  O          0.36032400       0.84705190       0.45506000
    13  C          0.02359900       0.77753000       0.74335000
    14  C          0.97640100       0.22247000       0.24335000
    15  C          0.52359900       0.72247000       0.74335000
    16  C          0.47640100       0.27753000       0.24335000
    17  H          0.04797300       0.78362100       0.63915300
    18  H          0.95202700       0.21637900       0.13915300
    19  H          0.54797300       0.71637900       0.63915300
    20  H          0.45202700       0.28362100       0.13915300
    21  C          0.95070200       0.76123000       0.05086000
    22  C          0.04929800       0.23877000       0.55086000
    23  C          0.45070200       0.73877000       0.05086000
    24  C          0.54929800       0.26123000       0.55086000
    25  H          0.92628700       0.75511000       0.15472400
    26  H          0.07371300       0.24489000       0.65472400
    27  H          0.42628700       0.74489000       0.15472400
    28  H          0.57371300       0.25511000       0.65472400
    29  C          0.95036100       0.85153000       0.83544000
    30  C          0.04963900       0.14847000       0.33544000
    31  C          0.45036100       0.64847000       0.83544000
    32  C          0.54963900       0.35153000       0.33544000
    33  H          0.92566400       0.90618300       0.79289100
    34  H          0.07433600       0.09381700       0.29289100
    35  H          0.42566400       0.59381700       0.79289100
    36  H          0.57433600       0.40618300       0.29289100
    37  C          0.14289800       0.55133000       0.25615000
    38  C          0.85710200       0.44867000       0.75615000
    39  C          0.64289800       0.94867000       0.25615000
    40  C          0.35710200       0.05133000       0.75615000
    41  H          0.16814500       0.59436300       0.33912500
    42  H          0.83185500       0.40563700       0.83912500
    43  H          0.66814500       0.90563700       0.33912500
    44  H          0.33185500       0.09436300       0.83912500
    45  H          0.12891100       0.48375300       0.37737900
    46  H          0.87108900       0.51624700       0.87737900
    47  H          0.62891100       0.01624700       0.37737900
    48  H          0.37108900       0.98375300       0.87737900
    49  C          0.15686700       0.46263000       0.02295000
    50  C          0.84313300       0.53737000       0.52295000
    51  C          0.65686700       0.03737000       0.02295000
    52  C          0.34313300       0.96263000       0.52295000
    53  C          0.98761200       0.67893000       0.11285000
    54  C          0.01238800       0.32107000       0.61285000
    55  C          0.48761200       0.82107000       0.11285000
    56  C          0.51238800       0.17893000       0.61285000
    57  H          0.98785500       0.61890400       0.25960900
    58  H          0.01214500       0.38109600       0.75960900
    59  H          0.48785500       0.88109600       0.25960900
    60  H          0.51214500       0.11890400       0.75960900
    61  C          0.06306800       0.58953000       0.01997000
    62  C          0.93693200       0.41047000       0.51997000
    63  C          0.56306800       0.91047000       0.01997000
    64  C          0.43693200       0.08953000       0.51997000
    65  H          0.07399500       0.54381000       0.86336800
    66  H          0.92600500       0.45619000       0.36336800
    67  H          0.57399500       0.95619000       0.86336800
    68  H          0.42600500       0.04381000       0.36336800
    69  H          0.05461600       0.50860500       0.13567300
    70  H          0.94538400       0.49139500       0.63567300
    71  H          0.55461600      -0.00860500       0.13567300
    72  H          0.44538400       0.00860500       0.63567300
    73  C          0.98690200       0.86093000       0.68224000
    74  C          0.01309800       0.13907000       0.18224000
    75  C          0.48690200       0.63907000       0.68224000
    76  C          0.51309800       0.36093000       0.18224000
    77  H          0.98688100       0.92315700       0.53824100
    78  H          0.01311900       0.07684300       0.03824100
    79  H          0.48688100       0.57684300       0.53824100
    80  H          0.51311900       0.42315700       0.03824100
    81  C          0.02411800       0.68553000       0.95794000
    82  C          0.97588200       0.31447000       0.45794000
    83  C          0.52411800       0.81447000       0.95794000
    84  C          0.47588200       0.18553000       0.45794000
    85  H          0.19631000       0.47030000       0.76030000
    86  H          0.80369000       0.52970000       0.26030000
    87  H          0.69631000       0.02970000       0.76030000
    88  H          0.30369000       0.97030000       0.26030000
    89  O          0.24715600       0.20588170       0.83426000
    90  O          0.75284400       0.79411830       0.33426000
    91  O          0.74715600       0.29411830       0.83426000
    92  O          0.25284400       0.70588170       0.33426000
    93  O          0.21822500       0.35433180       0.53037000
    94  O          0.78177500       0.64566820       0.03037000
    95  O          0.71822500       0.14566820       0.53037000
    96  O          0.28177500       0.85433180       0.03037000
    97  C          0.16362700       0.07952000       0.44775000
    98  C          0.83637300       0.92048000       0.94775000
    99  C          0.66362700       0.42048000       0.44775000
   100  C          0.33637300       0.57952000       0.94775000
   101  H          0.15104700       0.17944900       0.42710300
   102  H          0.84895300       0.82055100       0.92710300
   103  H          0.65104700       0.32055100       0.42710300
   104  H          0.34895300       0.67944900       0.92710300
   105  H          0.15533000       0.01685600       0.30286800
   106  H          0.84467000       0.98314400       0.80286800
   107  H          0.65533000       0.48314400       0.30286800
   108  H          0.34467000       0.51685600       0.80286800
   109  C          0.22755700       0.22712000       0.62715000
   110  C          0.77244300       0.77288000       0.12715000
   111  C          0.72755700       0.27288000       0.62715000
   112  C          0.27244300       0.72712000       0.12715000
   113  N          0.22447600       0.94768000       0.62056000
   114  N          0.77552400       0.05232000       0.12056000
   115  N          0.72447600       0.55232000       0.62056000
   116  N          0.27552400       0.44768000       0.12056000
   117  C          0.21295700       0.08852000       0.47375000
   118  C          0.78704300       0.91148000      -0.02625000
   119  C          0.71295700       0.41148000       0.47375000
   120  C          0.28704300       0.58852000      -0.02625000
   121  H          0.22665600       0.08765200       0.30404600
   122  H          0.77334400       0.91234800       0.80404600
   123  H          0.72665600       0.41234800       0.30404600
   124  H          0.27334400       0.58765200       0.80404600
   125  C          0.14977700       0.00802000       0.70045000
   126  C          0.85022300      -0.00802000       0.20045000
   127  C          0.64977700       0.49198000       0.70045000
   128  C          0.35022300       0.50802000       0.20045000
   129  H          0.12116300       0.96353200       0.68637500
   130  H          0.87883700       0.03646800       0.18637500
   131  H          0.62116300       0.53646800       0.68637500
   132  H          0.37883700       0.46353200       0.18637500
   133  H          0.14965900       0.08210800       0.83805400
   134  H          0.85034100       0.91789200       0.33805400
   135  H          0.64965900       0.41789200       0.83805400
   136  H          0.35034100       0.58210800       0.33805400
   137  C          0.18389700       0.88698000       0.74695000
   138  C          0.81610300       0.11302000       0.24695000
   139  C          0.68389700       0.61302000       0.74695000
   140  C          0.31610300       0.38698000       0.24695000
   141  H          0.18845400       0.87161400       0.92952400
   142  H          0.81154600       0.12838600       0.42952400
   143  H          0.68845400       0.62838600       0.92952400
   144  H          0.31154600       0.37161400       0.42952400
   145  H          0.17529500       0.79157800       0.66998000
   146  H          0.82470500       0.20842200       0.16998000
   147  H          0.67529500       0.70842200       0.66998000
   148  H          0.32470500       0.29157800       0.16998000
   149  H          0.23518000       0.87370000       0.51440000
   150  H          0.76482000       0.12630000       0.01440000
   151  H          0.73518000       0.62630000       0.51440000
   152  H          0.26482000       0.37370000       0.01440000
   153  H          0.24431000       0.96670000       0.72640000
   154  H          0.75569000       0.03330000       0.22640000
   155  H          0.74431000       0.53330000       0.72640000
   156  H          0.25569000       0.46670000       0.22640000
