data_XIWDAI
_symmetry_space_group_name_H-M    'P1'
_symmetry_Int_Tables_number       1
loop_
_symmetry_equiv_pos_site_id
_symmetry_equiv_pos_as_xyz
1 x,y,z
_cell_length_a                   10.49831
_cell_length_b                   10.87082
_cell_length_c                   11.58149
_cell_angle_alpha                115.361
_cell_angle_beta                 101.961
_cell_angle_gamma                99.662
loop_
_atom_site_label
_atom_site_type_symbol
_atom_site_fract_x
_atom_site_fract_y
_atom_site_fract_z
     1  O          0.60311000       0.25921000       0.88861000
     2  O          0.39689000       0.74079000       0.11139000
     3  O          0.51101900       0.59371000       0.93435900
     4  O          0.48898100       0.40629000       0.06564100
     5  C          0.68031000       0.33021000       0.84321000
     6  C          0.31969000       0.66979000       0.15679000
     7  C          0.82161000       0.34261000       0.87071000
     8  C          0.17839000       0.65739000       0.12929000
     9  C          0.90211000       0.42292000       0.83451000
    10  C          0.09789000       0.57708000       0.16549000
    11  C          0.84821000       0.49611000       0.77011000
    12  C          0.15179000       0.50389000       0.22989000
    13  C          0.93142000       0.58782000       0.73972000
    14  C          0.06858000       0.41218000       0.26028000
    15  C          0.87762000       0.66082000       0.68142000
    16  C          0.12238000       0.33918000       0.31858000
    17  C          0.73612000       0.64232000       0.64612000
    18  C          0.26388000       0.35768000       0.35388000
    19  C          0.65212000       0.55222000       0.67122000
    20  C          0.34788000       0.44778000       0.32878000
    21  C          0.70541000       0.47931000       0.73721000
    22  C          0.29459000       0.52069000       0.26279000
    23  C          0.62181000       0.39381000       0.77411000
    24  C          0.37819000       0.60619000       0.22589000
    25  C          0.42091000       0.47101000       0.82761000
    26  C          0.57909000       0.52899000       0.17239000
    27  C          0.47191000       0.37411000       0.74191000
    28  C          0.52809000       0.62589000       0.25809000
    29  C          0.37901000       0.25231000       0.62321000
    30  C          0.62099000       0.74769000       0.37679000
    31  C          0.42451000       0.15242000       0.52601000
    32  C          0.57549000       0.84758000       0.47399000
    33  C          0.33342000       0.03882000       0.41122000
    34  C          0.66658000       0.96118000       0.58878000
    35  C          0.19232000       0.01762000       0.38682000
    36  C          0.80768000      -0.01762000       0.61318000
    37  C          0.14501000       0.11112000       0.47852000
    38  C          0.85499000       0.88888000       0.52148000
    39  C          0.23611000       0.23001000       0.59831000
    40  C          0.76389000       0.76999000       0.40169000
    41  C          0.18931000       0.32922000       0.69382000
    42  C          0.81069000       0.67078000       0.30618000
    43  C          0.27891000       0.44722000       0.80481000
    44  C          0.72109000       0.55278000       0.19519000
    45  H          0.85850000       0.29470000       0.92350000
    46  H          0.14150000       0.70530000       0.07650000
    47  H          0.00060000       0.43710000       0.86230000
    48  H         -0.00060000       0.56290000       0.13770000
    49  H          0.02350000       0.58630000       0.75830000
    50  H          0.97650000       0.41370000       0.24170000
    51  H          0.93930000       0.72760000       0.66120000
    52  H          0.06070000       0.27240000       0.33880000
    53  H          0.69600000       0.69560000       0.60470000
    54  H          0.30400000       0.30440000       0.39530000
    55  H          0.55160000       0.53100000       0.64160000
    56  H          0.44840000       0.46900000       0.35840000
    57  H          0.52350000       0.16760000       0.54520000
    58  H          0.47650000       0.83240000       0.45480000
    59  H          0.36860000       0.96860000       0.34260000
    60  H          0.63140000       0.03140000       0.65740000
    61  H          0.12950000       0.93820000       0.30790000
    62  H          0.87050000       0.06180000       0.69210000
    63  H          0.05310000       0.10410000       0.47160000
    64  H          0.94690000       0.89590000       0.52840000
    65  H          0.08420000       0.31310000       0.67300000
    66  H          0.91580000       0.68690000       0.32700000
    67  H          0.24560000       0.52170000       0.87300000
    68  H          0.75440000       0.47830000       0.12700000
    69  H          0.63900000       0.18990000       0.91730000
    70  H          0.36100000       0.81010000       0.08270000
    71  H          0.47430000       0.63820000      -0.00050000
    72  H          0.52570000       0.36180000       0.00050000
    73  N          0.66141000       0.05591000       0.92351000
    74  N          0.33859000       0.94409000       0.07649000
    75  N          0.63731000       0.85429000       0.92791000
    76  N          0.36269000       0.14571000       0.07209000
    77  C          0.57581000       0.92749000       0.87621000
    78  C          0.42419000       0.07251000       0.12379000
    79  C          0.76742000       0.93738000       0.01032000
    80  C          0.23258000       0.06262000      -0.01032000
    81  C          0.78031000       0.06202000       0.00682000
    82  C          0.21969000       0.93798000      -0.00682000
    83  C          0.43871000       0.86878000       0.77851000
    84  C          0.56129000       0.13122000       0.22149000
    85  C          0.38082000       0.95118000       0.73082000
    86  C          0.61918000       0.04882000       0.26918000
    87  C          0.25392000       0.89138000       0.63342000
    88  C          0.74608000       0.10862000       0.36658000
    89  C          0.18372000       0.75058000       0.58292000
    90  C          0.81628000       0.24942000       0.41708000
    91  C          0.23912000       0.66848000       0.63142000
    92  C          0.76088000       0.33152000       0.36858000
    93  C          0.36622000       0.72728000       0.72812000
    94  C          0.63378000       0.27272000       0.27188000
    95  C          0.86192000       0.88568000       0.08052000
    96  C          0.13808000       0.11432000       0.91948000
    97  H          0.59350000       0.76180000       0.90990000
    98  H          0.40650000       0.23820000       0.09010000
    99  H          0.85400000       0.13700000       0.03820000
   100  H          0.14600000       0.86300000       0.96180000
   101  H          0.43470000       0.04400000       0.76160000
   102  H          0.56530000       0.95600000       0.23840000
   103  H          0.21830000       0.96160000       0.61250000
   104  H          0.78170000       0.03840000       0.38750000
   105  H          0.09640000       0.69680000       0.50790000
   106  H          0.90360000       0.30320000       0.49210000
   107  H          0.19260000       0.57530000       0.60870000
   108  H          0.80740000       0.42470000       0.39130000
   109  H          0.40450000       0.66180000       0.75590000
   110  H          0.59550000       0.33820000       0.24410000
   111  H          0.81770000       0.85620000       0.13970000
   112  H          0.18230000       0.14380000       0.86030000
   113  H          0.87690000       0.80620000       0.02030000
   114  H          0.12310000       0.19380000       0.97970000
   115  H          0.95030000       0.95690000       0.13980000
   116  H          0.04970000       0.04310000       0.86020000
