data_XIYPUT
_symmetry_space_group_name_H-M    'P1'
_symmetry_Int_Tables_number       1
loop_
_symmetry_equiv_pos_site_id
_symmetry_equiv_pos_as_xyz
1 x,y,z
_cell_length_a                   7.42982
_cell_length_b                   14.38204
_cell_length_c                   17.66344
_cell_angle_alpha                88.93559
_cell_angle_beta                 80.41439
_cell_angle_gamma                84.70129
loop_
_atom_site_label
_atom_site_type_symbol
_atom_site_fract_x
_atom_site_fract_y
_atom_site_fract_z
     1  Cl         0.59667600       0.62373300       0.57839800
     2  Cl         0.40332400       0.37626700       0.42160200
     3  Cl         0.28082600       0.18972300       0.65917300
     4  Cl         0.71917400       0.81027700       0.34082700
     5  N          0.48642000       0.87316100       0.78136100
     6  N          0.51358000       0.12683900       0.21863900
     7  H          0.54430000       0.90571500       0.74508700
     8  H          0.45570000       0.09428500       0.25491300
     9  N          0.22262000       0.71273100       0.95443200
    10  N          0.77738000       0.28726900       0.04556800
    11  N          0.21852000       0.64201100       0.10921800
    12  N          0.78148000       0.35798900       0.89078200
    13  H          0.11130000       0.61891400       0.11661200
    14  H          0.88870000       0.38108600       0.88338800
    15  N          0.02632000       0.88593110       0.75574900
    16  N          0.97368000       0.11406890       0.24425100
    17  H         -0.01030000       0.91371500       0.79871300
    18  H          0.01030000       0.08628500       0.20128700
    19  N          0.13462000       0.75942100       0.54181800
    20  N          0.86538000       0.24057900       0.45818200
    21  N          0.16492000       0.66970100       0.39494800
    22  N          0.83508000       0.33029900       0.60505200
    23  H          0.05330000       0.65551400       0.39621200
    24  H          0.94670000       0.34448600       0.60378800
    25  C          0.40563000       0.91101120       0.84825890
    26  C          0.59437000       0.08898880       0.15174110
    27  H          0.42330000       0.97341600       0.85518700
    28  H          0.57670000       0.02658400       0.14481300
    29  C          0.30962000       0.86058120       0.90465900
    30  C          0.69038000       0.13941880       0.09534100
    31  H          0.26630000       0.89111500       0.95148700
    32  H          0.73370000       0.10888500       0.04851300
    33  C          0.29842000       0.76440120       0.89486900
    34  C          0.70158000       0.23559880       0.10513100
    35  C          0.36742000       0.72577110       0.81937900
    36  C          0.63258000       0.27422890       0.18062100
    37  C          0.33142000       0.63727120       0.79413900
    38  C          0.66858000       0.36272880       0.20586100
    39  H          0.25230000       0.60041500       0.82678800
    40  H          0.74770000       0.39958500       0.17321200
    41  C          0.40092000       0.60536120       0.72157900
    42  C          0.59908000       0.39463880       0.27842100
    43  H          0.37630000       0.54741500       0.70628800
    44  H          0.62370000       0.45258500       0.29371200
    45  C          0.50842000       0.66243120       0.67049900
    46  C          0.49158000       0.33756880       0.32950100
    47  C          0.53912000       0.75021120       0.68993900
    48  C          0.46088000       0.24978880       0.31006100
    49  H          0.60930000       0.79141500       0.65508800
    50  H          0.39070000       0.20858500       0.34491200
    51  C          0.46592000       0.78254120       0.76430900
    52  C          0.53408000       0.21745880       0.23569100
    53  C          0.09852000       0.75482120       0.02035100
    54  C          0.90148000       0.24517880       0.97964900
    55  H          0.06530000       0.81651500       0.01191200
    56  H          0.93470000       0.18348500       0.98808800
    57  H         -0.01030000       0.72361500       0.02601200
    58  H          0.01030000       0.27638500       0.97398800
    59  C          0.18112000       0.74384120       0.09316100
    60  C          0.81888000       0.25615880       0.90683900
    61  H          0.29530000       0.77101500       0.08851200
    62  H          0.70470000       0.22898500       0.91148800
    63  H          0.09330000       0.77111500       0.13581300
    64  H          0.90670000       0.22888500       0.86418700
    65  C          0.26403000       0.61254120       0.96665900
    66  C          0.73597000       0.38745880       0.03334100
    67  H          0.35430000       0.58731500       0.92758700
    68  H          0.64570000       0.41268500       0.07241300
    69  H          0.15530000       0.58191500       0.96838800
    70  H          0.84470000       0.41808500       0.03161200
    71  C          0.33972000       0.59571120       0.04123100
    72  C          0.66028000       0.40428880       0.95876900
    73  H          0.46030000       0.61971400       0.03821200
    74  H          0.53970000       0.38028600       0.96178800
    75  H          0.34830000       0.53101500       0.05211200
    76  H          0.65170000       0.46898500       0.94788800
    77  C          0.30242000       0.62172130       0.18019100
    78  C          0.69758000       0.37827870       0.81980900
    79  H          0.42430000       0.64191500       0.17041200
    80  H          0.57570000       0.35808500       0.82958800
    81  H          0.31330000       0.55731600       0.18471200
    82  H          0.68670000       0.44268400       0.81528800
    83  C          0.18972000       0.66758120       0.25188100
    84  C          0.81028000       0.33241880       0.74811900
    85  H          0.18830000       0.73611500       0.24751200
    86  H          0.81170000       0.26388500       0.75248800
    87  H          0.06330000       0.65181500       0.25931200
    88  H          0.93670000       0.34818500       0.74068800
    89  C          0.27462000       0.63198130       0.32076100
    90  C          0.72538000       0.36801870       0.67923900
    91  H          0.40030000       0.64861500       0.31931200
    92  H          0.59970000       0.35138500       0.68068800
    93  H          0.27630000       0.56531600       0.32471200
    94  H          0.72370000       0.43468400       0.67528800
    95  C         -0.01202000       0.79842120       0.74814100
    96  C          0.01202000       0.20157880       0.25185900
    97  H          0.92770000       0.77031500       0.79411300
    98  H          0.07230000       0.22968500       0.20588700
    99  C          0.02802000       0.75339120       0.67835100
   100  C          0.97198000       0.24660880       0.32164900
   101  H         -0.00230000       0.69321500       0.67531200
   102  H          0.00230000       0.30678500       0.32468800
   103  C          0.10432000       0.80096120       0.61311100
   104  C          0.89568000       0.19903880       0.38688900
   105  C          0.15572000       0.89348120       0.62206100
   106  C          0.84428000       0.10651880       0.37793900
   107  C          0.25132000       0.94562120       0.56238100
   108  C          0.74868000       0.05437880       0.43761900
   109  H          0.29430000       0.91701500       0.51211300
   110  H          0.70570000       0.08298500       0.48788700
   111  C          0.28962000       0.03496130       0.57395110
   112  C          0.71038000       0.96503870       0.42604890
   113  H          0.35230000       0.06831500       0.53271300
   114  H          0.64770000       0.93168500       0.46728700
   115  C          0.23662000       0.07525120       0.64704110
   116  C          0.76338000       0.92474880       0.35295890
   117  C          0.15062000       0.02696120       0.70777110
   118  C          0.84938000       0.97303880       0.29222890
   119  H          0.11730000       0.05331500       0.75711300
   120  H          0.88270000       0.94668500       0.24288700
   121  C          0.11092000       0.93553120       0.69519100
   122  C          0.88908000       0.06446880       0.30480900
   123  C          0.12503000       0.65826120       0.53769100
   124  C          0.87497000       0.34173880       0.46230900
   125  H          0.00230000       0.64471500       0.54321200
   126  H         -0.00230000       0.35528500       0.45678800
   127  H          0.17630000       0.62721500       0.57771300
   128  H          0.82370000       0.37278500       0.42228700
   129  C          0.23363000       0.62157120       0.46221100
   130  C          0.76637000       0.37842880       0.53778900
   131  H          0.22330000       0.55801600       0.45671200
   132  H          0.77670000       0.44198400       0.54328800
   133  H          0.36330000       0.63101500       0.45761200
   134  H          0.63670000       0.36898500       0.54238800
   135  C          0.05572000       0.80616120       0.47815100
   136  C          0.94428000       0.19383880       0.52184900
   137  H          0.92770000       0.79201500       0.48201200
   138  H          0.07230000       0.20798500       0.51798800
   139  H          0.05130000       0.87201500       0.48111200
   140  H          0.94870000       0.12798500       0.51888800
   141  C          0.16562000       0.77336120       0.40188100
   142  C          0.83438000       0.22663880       0.59811900
   143  H          0.11630000       0.80191500       0.36131300
   144  H          0.88370000       0.19808500       0.63868700
   145  H          0.29530000       0.78681400       0.39751200
   146  H          0.70470000       0.21318600       0.60248800
   147  Br         0.29700200       0.00829200       0.35979200
   148  Br         0.70299800      -0.00829200       0.64020800
   149  Br         0.21388200       0.42219200       0.60526200
   150  Br         0.78611800       0.57780800       0.39473800
   151  Br         0.79728200       0.60092200       0.15316200
   152  Br         0.20271800       0.39907800       0.84683800
   153  Br         0.17243300       0.00051200       0.08967200
   154  Br         0.82756700      -0.00051200       0.91032800
   155  Br         0.21959300       0.35319200       0.09438200
   156  Br         0.78040700       0.64680800       0.90561800
   157  O          0.38062000       0.87624100       0.21221900
   158  O          0.61938000       0.12375900       0.78778100
   159  H          0.32040000       0.90561800       0.18501500
   160  H          0.67960000       0.09438200       0.81498500
   161  H          0.37230000       0.90501800       0.24831600
   162  H          0.62770000       0.09498200       0.75168400
   163  O          0.69192000       0.81449110       0.13912900
   164  O          0.30808000       0.18550890       0.86087100
   165  H          0.71830000       0.75641900       0.15011400
   166  H          0.28170000       0.24358100       0.84988600
   167  H          0.58940000       0.83391700       0.16801500
   168  H          0.41060000       0.16608300       0.83198500
   169  H          0.67830000       0.82011700       0.08551600
   170  H          0.32170000       0.17988300       0.91448400
   171  O          0.35832000       0.17248120      -0.00618900
   172  O          0.64168000       0.82751880       0.00618900
   173  H          0.32340000       0.21511900       0.01981500
   174  H          0.67660000       0.78488100       0.98018500
   175  H          0.32040000       0.12741900       0.01431500
   176  H          0.67960000       0.87258100       0.98568500
   177  O          0.10082000       0.44632110       0.27318100
   178  O          0.89918000       0.55367890       0.72681900
   179  H          0.10040000       0.43301800       0.21981600
   180  H          0.89960000       0.56698200       0.78018400
   181  H          0.98560000       0.48661900       0.28701500
   182  H          0.01440000       0.51338100       0.71298500
