data_XIZGEV
_symmetry_space_group_name_H-M    'P1'
_symmetry_Int_Tables_number       1
loop_
_symmetry_equiv_pos_site_id
_symmetry_equiv_pos_as_xyz
1 x,y,z
_cell_length_a                   13.442713
_cell_length_b                   14.132014
_cell_length_c                   15.787715
_cell_angle_alpha                85.8102
_cell_angle_beta                 84.8342
_cell_angle_gamma                88.4962
loop_
_atom_site_label
_atom_site_type_symbol
_atom_site_fract_x
_atom_site_fract_y
_atom_site_fract_z
     1  B          0.64403000       0.45593000       0.24892000
     2  B          0.35597000       0.54407000       0.75108000
     3  C          0.46592000       0.22052000      -0.00452000
     4  C          0.53408000       0.77948000       0.00452000
     5  C          0.44622000       0.12142000       0.97912810
     6  C          0.55378000       0.87858000       0.02087190
     7  C          0.36702000       0.10262000       0.93428000
     8  C          0.63298000       0.89738000       0.06572000
     9  H          0.32450000       0.15310000       0.91540000
    10  H          0.67550000       0.84690000       0.08460000
    11  C          0.65152000      -0.00892000       0.08372000
    12  C          0.34848000       0.00892000       0.91628000
    13  H          0.70610000       0.00380000       0.11520000
    14  H          0.29390000      -0.00380000       0.88480000
    15  C          0.59072000       0.06392000       0.05583190
    16  C          0.40928000       0.93608000       0.94416810
    17  C          0.61132000       0.16212000       0.07562000
    18  C          0.38868000       0.83788000       0.92438000
    19  C          0.50942000       0.04692000       0.00890190
    20  C          0.49058000       0.95308000       0.99109810
    21  C          0.58172000       0.35642000       0.13692000
    22  C          0.41828000       0.64358000       0.86308000
    23  H          0.56460000       0.31210000       0.18380000
    24  H          0.43540000       0.68790000       0.81620000
    25  C          0.57282000       0.33072000       0.05592000
    26  C          0.42718000       0.66928000       0.94408000
    27  C          0.59372000       0.39652000       0.98728000
    28  C          0.40628000       0.60348000       0.01272000
    29  H          0.58660000       0.38090000       0.93070000
    30  H          0.41340000       0.61910000       0.06930000
    31  C          0.62502000       0.48552000       0.00362000
    32  C          0.37498000       0.51448000      -0.00362000
    33  H          0.63890000       0.53220000       0.95800000
    34  H          0.36110000       0.46780000       0.04200000
    35  C          0.63582000       0.50582000       0.08552000
    36  C          0.36418000       0.49418000       0.91448000
    37  H          0.65940000       0.56640000       0.09570000
    38  H          0.34060000       0.43360000       0.90430000
    39  C          0.74132000       0.38282000       0.24772000
    40  C          0.25868000       0.61718000       0.75228000
    41  C          0.73962000       0.28862000       0.27922000
    42  C          0.26038000       0.71138000       0.72078000
    43  C          0.81623000       0.22382000       0.26382000
    44  C          0.18377000       0.77618000       0.73618000
    45  C          0.90053000       0.25083000       0.21502000
    46  C          0.09947000       0.74917000       0.78498000
    47  C          0.90803000       0.34323000       0.18062000
    48  C          0.09197000       0.65677000       0.81938000
    49  C          0.82963000       0.40502000       0.19712000
    50  C          0.17037000       0.59498000       0.80288000
    51  C          0.66552000       0.56642000       0.26191190
    52  C          0.33448000       0.43358000       0.73808810
    53  C          0.74552000       0.59902000       0.30072000
    54  C          0.25448000       0.40098000       0.69928000
    55  C          0.75703000       0.69202000       0.31742000
    56  C          0.24297000       0.30798000       0.68258000
    57  C          0.68753000       0.75972000       0.29542000
    58  C          0.31247000       0.24028000       0.70458000
    59  C          0.60493000       0.73222000       0.25832000
    60  C          0.39507000       0.26778000       0.74168000
    61  C          0.59622000       0.63792000       0.24372000
    62  C          0.40378000       0.36208000       0.75628000
    63  C          0.54992000       0.42672000       0.31822000
    64  C          0.45008000       0.57328000       0.68178000
    65  C          0.56713000       0.41002000       0.40332000
    66  C          0.43287000       0.58998000       0.59668000
    67  C          0.49363000       0.38713000       0.46742000
    68  C          0.50637000       0.61287000       0.53258000
    69  C          0.39733000       0.38253000       0.44823000
    70  C          0.60267000       0.61747000       0.55177000
    71  C          0.37453000       0.40213000       0.36563000
    72  C          0.62547000       0.59787000       0.63437000
    73  C          0.45023000       0.42342000       0.30292000
    74  C          0.54977000       0.57658000       0.69708000
    75  F          0.65677140       0.25424130       0.32470130
    76  F          0.34322860       0.74575870       0.67529870
    77  F          0.80669150       0.13273140       0.29503140
    78  F          0.19330850       0.86726860       0.70496860
    79  F          0.97474150       0.18739150       0.19796140
    80  F          0.02525850       0.81260850       0.80203860
    81  F          0.98996150       0.37075160       0.13113130
    82  F          0.01003850       0.62924840       0.86886870
    83  F          0.83882140       0.49379140       0.15752120
    84  F          0.16117860       0.50620860       0.84247880
    85  F          0.81771140       0.53739130       0.32692120
    86  F          0.18228860       0.46260870       0.67307880
    87  F          0.83630150       0.71767140       0.35631130
    88  F          0.16369850       0.28232860       0.64368870
    89  F          0.69847150       0.85091140       0.30935130
    90  F          0.30152850       0.14908860       0.69064870
    91  F          0.53410140       0.79637130       0.23775120
    92  F          0.46589860       0.20362870       0.76224880
    93  F          0.51174130       0.61511130       0.20884120
    94  F          0.48825870       0.38488870       0.79115880
    95  F          0.66118160       0.41586140       0.42583120
    96  F          0.33881840       0.58413860       0.57416880
    97  F          0.51672000       0.36968170       0.54889130
    98  F          0.48328000       0.63031830       0.45110870
    99  F          0.32392000       0.35950190       0.50973160
   100  F          0.67608000       0.64049810       0.49026840
   101  F          0.27922160       0.39858170       0.34638160
   102  F          0.72077840       0.60141830       0.65361840
   103  F          0.42102130       0.44207130       0.22341120
   104  F          0.57897870       0.55792870       0.77658880
   105  N          0.54655190       0.23483170       0.04369160
   106  N          0.45344810       0.76516830       0.95630840
   107  N          0.61409190       0.44268180       0.15227160
   108  N          0.38590810       0.55731820       0.84772840
   109  O          0.41666170       0.28770150       0.96941850
   110  O          0.58333830       0.71229850       0.03058150
   111  O          0.67903170       0.18131150       0.11630140
   112  O          0.32096830       0.81868850       0.88369860
   113  B          0.74303000       0.96673000       0.69862000
   114  B          0.25697000       0.03327000       0.30138000
   115  C          0.00792000       0.72202000       0.47648190
   116  C         -0.00792000       0.27798000       0.52351810
   117  C          0.01872000       0.62322000       0.45169190
   118  C          0.98128000       0.37678000       0.54830810
   119  C          0.05122000       0.60622000       0.36912000
   120  C          0.94878000       0.39378000       0.63088000
   121  H          0.06670000       0.65810000       0.32870000
   122  H          0.93330000       0.34190000       0.67130000
   123  C          0.93832000       0.48652000       0.65612000
   124  C          0.06168000       0.51348000       0.34388000
   125  H          0.91510000       0.49760000       0.71320000
   126  H          0.08490000       0.50240000       0.28680000
   127  C          0.96162000       0.56172000       0.59792000
   128  C          0.03838000       0.43828000       0.40208000
   129  C          0.94992000       0.65942000       0.62572000
   130  C          0.05008000       0.34058000       0.37428000
   131  C         -0.00488000       0.54672000       0.51240190
   132  C          0.00488000       0.45328000       0.48759810
   133  C          0.86822000       0.85742000       0.62062190
   134  C          0.13178000       0.14258000       0.37937810
   135  H          0.81460000       0.81440000       0.62450000
   136  H          0.18540000       0.18560000       0.37550000
   137  C          0.96102000       0.82852000       0.58796190
   138  C          0.03898000       0.17148000       0.41203810
   139  C          0.03992000       0.89012000       0.58170190
   140  C          0.96008000       0.10988000       0.41829810
   141  H          0.10460000       0.87110000       0.55900000
   142  H          0.89540000       0.12890000       0.44100000
   143  C          0.02202000       0.98012000       0.60932190
   144  C          0.97798000       0.01988000       0.39067810
   145  H          0.07460000       0.02430000       0.60550000
   146  H          0.92540000       0.97570000       0.39450000
   147  C          0.92762000       0.00532000       0.64244190
   148  C          0.07238000      -0.00532000       0.35755810
   149  H          0.91610000       0.06690000       0.66230000
   150  H          0.08390000       0.93310000       0.33770000
   151  C          0.75332000       0.89842000       0.78566190
   152  C          0.24668000       0.10158000       0.21433810
   153  C          0.81782000       0.92062000       0.84432000
   154  C          0.18218000       0.07938000       0.15568000
   155  C          0.84093000       0.86243000       0.91312000
   156  C          0.15907000       0.13757000       0.08688000
   157  C          0.80263000       0.77283000       0.92512000
   158  C          0.19737000       0.22717000       0.07488000
   159  C          0.74123000       0.74502000       0.86742000
   160  C          0.25877000       0.25498000       0.13258000
   161  C          0.71653000       0.80712000       0.80112000
   162  C          0.28347000       0.19288000       0.19888000
   163  C          0.73092000       0.08052000       0.70832000
   164  C          0.26908000       0.91948000       0.29168000
   165  C          0.74312000       0.14282000       0.63642000
   166  C          0.25688000       0.85718000       0.36358000
   167  C          0.73272000       0.24032000       0.63592000
   168  C          0.26728000       0.75968000       0.36408000
   169  C          0.70693000       0.28042000       0.71203000
   170  C          0.29307000       0.71958000       0.28797000
   171  C          0.68993000       0.22193000       0.78462000
   172  C          0.31007000       0.77807000       0.21538000
   173  C          0.70132000       0.12542000       0.78222000
   174  C          0.29868000       0.87458000       0.21778000
   175  C          0.64862000       0.93892000       0.64692000
   176  C          0.35138000       0.06108000       0.35308000
   177  C          0.64562000       0.91472000       0.56412000
   178  C          0.35438000       0.08528000       0.43588000
   179  C          0.55883000       0.89423000       0.52972000
   180  C          0.44117000       0.10577000       0.47028000
   181  C          0.46853000       0.90223000       0.57682000
   182  C          0.53147000       0.09777000       0.42318000
   183  C          0.46633000       0.92992000       0.65822000
   184  C          0.53367000       0.07008000       0.34178000
   185  C          0.55433000       0.94572000       0.69132000
   186  C          0.44567000       0.05428000       0.30868000
   187  F          0.86494140       0.00487130       0.83296120
   188  F          0.13505860      -0.00487130       0.16703880
   189  F          0.90246170       0.89164170       0.96800130
   190  F          0.09753830       0.10835830       0.03199870
   191  F          0.82576170       0.71361160       0.99097130
   192  F          0.17423830       0.28638840       0.00902870
   193  F          0.70577180       0.65640140       0.87532130
   194  F          0.29422820       0.34359860       0.12467870
   195  F          0.65451160       0.77227140       0.74797130
   196  F          0.34548840       0.22772860       0.25202870
   197  F          0.76893130       0.10710130       0.55984110
   198  F          0.23106870       0.89289870       0.44015890
   199  F          0.74918150       0.29494130       0.56301130
   200  F          0.25081850       0.70505870       0.43698870
   201  F          0.69763160       0.37456140       0.71397160
   202  F          0.30236840       0.62543860       0.28602840
   203  F          0.66139160       0.25946150       0.85927140
   204  F          0.33860840       0.74053850       0.14072860
   205  F          0.67989150       0.07449140       0.85735120
   206  F          0.32010850       0.92550860       0.14264880
   207  F          0.73074140       0.90999140       0.51097110
   208  F          0.26925860       0.09000860       0.48902890
   209  F          0.56140160       0.86776160       0.44896130
   210  F          0.43859840       0.13223840       0.55103870
   211  F          0.38323150       0.88626160       0.54224140
   212  F          0.61676850       0.11373840       0.45775860
   213  F          0.37928140       0.94148150       0.70571140
   214  F          0.62071860       0.05851850       0.29428860
   215  F          0.54793140       0.96944140       0.77343120
   216  F          0.45206860       0.03055860       0.22656880
   217  N          0.97345190       0.73331170       0.56227160
   218  N          0.02654810       0.26668830       0.43772840
   219  N          0.85101180       0.94498170       0.64734150
   220  N          0.14898820       0.05501830       0.35265850
   221  O          0.02674160       0.79030150       0.42773130
   222  O          0.97325840       0.20969850       0.57226870
   223  O          0.92203170       0.67753150       0.69792140
   224  O          0.07796830       0.32246850       0.30207860
   225  C          0.00393000       0.78323000       0.12272000
   226  C         -0.00393000       0.21677000       0.87728000
   227  C          0.08133000       0.80794000       0.06143000
   228  C          0.91867000       0.19206000       0.93857000
   229  H          0.09480000       0.87260000       0.04490000
   230  H          0.90520000       0.12740000       0.95510000
   231  C          0.13833000       0.73644000       0.02503000
   232  C          0.86167000       0.26356000       0.97497000
   233  H          0.19100000       0.75210000       0.98260000
   234  H          0.80900000       0.24790000       0.01740000
   235  C          0.11983000       0.64264000       0.04923000
   236  C          0.88017000       0.35736000       0.95077000
   237  H          0.15990000       0.59420000       0.02360000
   238  H          0.84010000       0.40580000       0.97640000
   239  C          0.04383000       0.61864000       0.11023000
   240  C          0.95617000       0.38136000       0.88977000
   241  H          0.03150000       0.55380000       0.12710000
   242  H          0.96850000       0.44620000       0.87290000
   243  C          0.98537000       0.68853000       0.14673000
   244  C          0.01463000       0.31147000       0.85327000
   245  H          0.93230000       0.67200000       0.18860000
   246  H          0.06770000       0.32800000       0.81140000
   247  C          0.93737000       0.85713000       0.16292000
   248  C          0.06263000       0.14287000       0.83708000
   249  F          0.94962810       0.94467180       0.12541160
   250  F          0.05037190       0.05532820       0.87458840
   251  F          0.83995830       0.83806170       0.16133150
   252  F          0.16004170       0.16193830       0.83866850
   253  F          0.95218000       0.86324190       0.24527150
   254  F          0.04782000       0.13675810       0.75472850
