data_XOFSUI
_symmetry_space_group_name_H-M    'P1'
_symmetry_Int_Tables_number       1
loop_
_symmetry_equiv_pos_site_id
_symmetry_equiv_pos_as_xyz
1 x,y,z
_cell_length_a                   9.44762
_cell_length_b                   12.11213
_cell_length_c                   15.31984
_cell_angle_alpha                90.0
_cell_angle_beta                 96.15401
_cell_angle_gamma                90.0
loop_
_atom_site_label
_atom_site_type_symbol
_atom_site_fract_x
_atom_site_fract_y
_atom_site_fract_z
     1  Br         0.30067500       0.43298000       0.31343400
     2  Br         0.69932500       0.93298000       0.68656600
     3  O          0.11282000       0.93982000       0.03706150
     4  O          0.88718000       0.43982000       0.96293850
     5  O          0.87733000       0.01628000       0.33500150
     6  O          0.12267000       0.51628000       0.66499850
     7  O          0.01493000       0.14568000       0.08761150
     8  O         -0.01493000       0.64568000       0.91238850
     9  O          0.14663000       0.82492000       0.14982190
    10  O          0.85337000       0.32492000       0.85017810
    11  O          0.57493000       0.02528000       0.02182000
    12  O          0.42507000       0.52528000       0.97818000
    13  O          0.47573000       0.97712000       0.13713000
    14  O          0.52427000       0.47712000       0.86287000
    15  C          0.64024000       0.20918000       0.20002000
    16  C          0.35976000       0.70918000       0.79998000
    17  C          0.75133000       0.77982000       0.02682000
    18  C          0.24867000       0.27982000       0.97318000
    19  C          0.83163000       0.95102000       0.11222000
    20  C          0.16837000       0.45102000       0.88778000
    21  C          0.59124000       0.18508000       0.28123000
    22  C          0.40876000       0.68508000       0.71877000
    23  C          0.90374000       0.15438000       0.21902000
    24  C          0.09626000       0.65438000       0.78098000
    25  C          0.74755000       0.65671000       0.17803000
    26  C          0.25245000       0.15671000       0.82197000
    27  C          0.43924000       0.34229000       0.26613000
    28  C          0.56076000       0.84229000       0.73387000
    29  C          0.78595000       0.76711000       0.18283000
    30  C          0.21405000       0.26711000       0.81717000
    31  C          0.79043000       0.82962000       0.10742000
    32  C          0.20957000       0.32962000       0.89258000
    33  C          0.16654000       0.10838000       0.22152000
    34  C          0.83346000       0.60838000       0.77848000
    35  C          0.58224000       0.29898000       0.15293000
    36  C          0.41776000       0.79898000       0.84707000
    37  C          0.49035000       0.25179000       0.31443000
    38  C          0.50965000       0.75179000       0.68557000
    39  C          0.98133000       0.96942000       0.16112000
    40  C          0.01867000       0.46942000       0.83888000
    41  C          0.75644000       0.14078000       0.16392000
    42  C          0.24356000       0.64078000       0.83608000
    43  C          0.48164000       0.36658000       0.18493000
    44  C          0.51836000       0.86658000       0.81507000
    45  C          0.70874000       0.60842000       0.09743000
    46  C          0.29126000       0.10842000       0.90257000
    47  C          0.02044000       0.09298000       0.17172000
    48  C          0.97956000       0.59298000       0.82828000
    49  C          0.71963000       0.01738000       0.15592000
    50  C          0.28037000       0.51738000       0.84408000
    51  C          0.70904000       0.67062000       0.02213000
    52  C          0.29096000       0.17062000       0.97787000
    53  C          0.95724000       0.36188000       0.17153000
    54  C          0.04276000       0.86188000       0.82847000
    55  C          0.93075000       0.20279000       0.45983000
    56  C          0.06925000       0.70279000       0.54017000
    57  C          0.94896000       0.10841000       0.60143000
    58  C          0.05104000       0.60841000       0.39857000
    59  C          0.95196000       0.10489000       0.51133000
    60  C          0.04804000       0.60489000       0.48867000
    61  C          0.92729000       0.21141100       0.64043000
    62  C          0.07271000       0.71141100       0.35957000
    63  C          0.91871500       0.29619000       0.50234000
    64  C          0.08128500       0.79619000       0.49766000
    65  N          0.57973000       0.00608000       0.10003000
    66  N          0.42027000       0.50608000       0.89997000
    67  C          0.93753000       0.27498000       0.23762000
    68  C          0.06247000       0.77498000       0.76238000
    69  C          0.24396000       0.76151000       0.10024000
    70  C          0.75604000       0.26151000       0.89976000
    71  C          0.90981800       0.29901000       0.59135000
    72  C          0.09018200       0.79901000       0.40865000
    73  C          0.27420000       0.66448600       0.14691000
    74  C          0.72580000       0.16448600       0.85309000
    75  N          0.94843000       0.29798000       0.31912000
    76  N          0.05157000       0.79798000       0.68088000
    77  N          0.92853000       0.19978000       0.36633190
    78  N          0.07147000       0.69978000       0.63366810
    79  C          0.08643000       0.91082000       0.10922000
    80  C          0.91357000       0.41082000       0.89078000
    81  C          0.90084000       0.11058000       0.31242000
    82  C          0.09916000       0.61058000       0.68758000
    83  H         -0.00000000       0.94241000       0.21695000
    84  H         -0.00000000       0.44241000       0.78305000
    85  H          0.96319000       0.43131000       0.19889000
    86  H          0.03681000       0.93131000       0.80111000
    87  H          0.04067000       0.35160000       0.15454000
    88  H          0.95933000       0.85160000       0.84546000
    89  H          0.91078000       0.35387000       0.12919000
    90  H          0.08922000       0.85387000       0.87081000
    91  H          0.44314000       0.43374000       0.14759000
    92  H          0.55686000       0.93374000       0.85241000
    93  H          0.22493000       0.06081000       0.19545000
    94  H          0.77507000       0.56081000       0.80455000
    95  H          0.62481000       0.32468000       0.09607000
    96  H          0.37519000       0.82468000       0.90393000
    97  H          0.83204000       0.97765000       0.05120000
    98  H          0.16796000       0.47765000       0.94880000
    99  H          0.77456000       0.17383000       0.10311000
   100  H          0.22544000       0.67383000       0.89689000
   101  H          0.62945000       0.11962000       0.32087000
   102  H          0.37055000       0.61962000       0.67913000
   103  H          0.75313000       0.82815000       0.96630000
   104  H          0.24687000       0.32815000       0.03370000
   105  H          0.71528000       0.00000000       0.21970000
   106  H          0.28472000       0.50000000       0.78030000
   107  H          0.16906000       0.09106000       0.26954000
   108  H          0.83094000       0.59106000       0.73046000
   109  H          0.75216000       0.60820000       0.22512000
   110  H          0.24784000       0.10820000       0.77488000
   111  H          0.46147000       0.23022000       0.37031000
   112  H          0.53853000       0.73022000       0.62969000
   113  H          0.65773000       0.54501000       0.09413000
   114  H          0.34227000       0.04501000       0.90587000
   115  H          0.05987000       0.10243000       0.05354000
   116  H          0.94013000       0.60243000       0.94646000
   117  H          0.81034000       0.80054000       0.24194000
   118  H          0.18966000       0.30054000       0.75806000
   119  H          0.92129000       0.36432000       0.47025000
   120  H          0.07871000       0.86432000       0.52975000
   121  H          0.88969000       0.36803000       0.61898000
   122  H          0.11031000       0.86803000       0.38102000
   123  H          0.92243000       0.21837000       0.70215000
   124  H          0.07757000       0.71837000       0.29785000
   125  H          0.96118000       0.04410000       0.63624000
   126  H          0.03882000       0.54410000       0.36376000
   127  H          0.96770000       0.03700000       0.48346000
   128  H          0.03230000       0.53700000       0.51654000
   129  H          0.67951000       0.63892000       0.96629000
   130  H          0.32049000       0.13892000       0.03371000
   131  H          0.32815000       0.80349000       0.09493000
   132  H          0.67185000       0.30349000       0.90507000
   133  H          0.19877000       0.74555000       0.04320000
   134  H          0.80123000       0.24555000       0.95680000
   135  H          0.37441000       0.66353000       0.17010000
   136  H          0.62559000       0.16353000       0.82990000
   137  H          0.25646000       0.60175000       0.11093000
   138  H          0.74354000       0.10175000       0.88907000
   139  H          0.22020000       0.65978000       0.19603000
   140  H          0.77980000       0.15978000       0.80397000
   141  H          0.20093000       0.18270000       0.21789000
   142  H          0.79907000       0.68270000       0.78211000
   143  O          0.65630000       0.62238500       0.52937000
   144  O          0.34370000       0.12238500       0.47063000
   145  O          0.62120000       0.70688600       0.40286000
   146  O          0.37880000       0.20688600       0.59714000
   147  C          0.65820000       0.61398700       0.45897000
   148  C          0.34180000       0.11398700       0.54103000
   149  C          0.69130000       0.51288600       0.42091100
   150  C          0.30870000       0.01288600       0.57908900
   151  C          0.53940000       0.87098300       0.39331200
   152  C          0.46060000       0.37098300       0.60668800
   153  C          0.65430000       0.81198700       0.43661100
   154  C          0.34570000       0.31198700       0.56338900
   155  H          0.79330000       0.50280000       0.42381700
   156  H          0.20670000       0.00280000       0.57618300
   157  H          0.65340000       0.51208500       0.36091100
   158  H          0.34660000       0.01208500       0.63908900
   159  H          0.65240000       0.45408700       0.45121400
   160  H          0.34760000       0.95408700       0.54878600
   161  H          0.57250000       0.93948400       0.37481400
   162  H          0.42750000       0.43948400       0.62518600
   163  H          0.47330000       0.88280000       0.43571700
   164  H          0.52670000       0.38280000       0.56428300
   165  H          0.49740000       0.82880000       0.34671400
   166  H          0.50260000       0.32880000       0.65328600
   167  H          0.74530000       0.83738300       0.41920000
   168  H          0.25470000       0.33738300       0.58080000
   169  H          0.66030000       0.81428600       0.49871000
   170  H          0.33970000       0.31428600       0.50129000
