data_XOGMUD
_symmetry_space_group_name_H-M    'P1'
_symmetry_Int_Tables_number       1
loop_
_symmetry_equiv_pos_site_id
_symmetry_equiv_pos_as_xyz
1 x,y,z
_cell_length_a                   6.28283
_cell_length_b                   13.38436
_cell_length_c                   18.79848
_cell_angle_alpha                90.0
_cell_angle_beta                 96.6384
_cell_angle_gamma                90.0
loop_
_atom_site_label
_atom_site_type_symbol
_atom_site_fract_x
_atom_site_fract_y
_atom_site_fract_z
     1  O          0.65592000       0.19551100       0.36714700
     2  O          0.84408000       0.69551100       0.13285300
     3  O          0.34408000       0.80448900       0.63285300
     4  O          0.15592000       0.30448900       0.86714700
     5  C          0.50043000       0.17196120       0.32420900
     6  C         -0.00043000       0.67196120       0.17579100
     7  C          0.49957000       0.82803880       0.67579100
     8  C          0.00043000       0.32803880       0.82420900
     9  C          0.41643000       0.22617140       0.25649100
    10  C          0.08357000       0.72617140       0.24350900
    11  C          0.58357000       0.77382860       0.74350900
    12  C          0.91643000       0.27382860       0.75649100
    13  H          0.51340000       0.21710000       0.21910000
    14  H         -0.01340000       0.71710000       0.28090000
    15  H          0.48660000       0.78290000       0.78090000
    16  H          0.01340000       0.28290000       0.71910000
    17  H          0.40100000       0.29850000       0.26560000
    18  H          0.09900000       0.79850000       0.23440000
    19  H          0.59900000       0.70150000       0.73440000
    20  H          0.90100000       0.20150000       0.76560000
    21  C          0.19883000       0.17847130       0.23381900
    22  C          0.30117000       0.67847130       0.26618100
    23  C          0.80117000       0.82152870       0.76618100
    24  C          0.69883000       0.32152870       0.73381900
    25  H          0.17260000       0.17190000       0.18110000
    26  H          0.32740000       0.67190000       0.31890000
    27  H          0.82740000       0.82810000       0.81890000
    28  H          0.67260000       0.32810000       0.68110000
    29  H          0.08200000       0.21860000       0.25070000
    30  H          0.41800000       0.71860000       0.24930000
    31  H          0.91800000       0.78140000       0.74930000
    32  H          0.58200000       0.28140000       0.75070000
    33  C          0.21423000       0.07574130       0.26975900
    34  C          0.28577000       0.57574130       0.23024100
    35  C          0.78577000       0.92425870       0.73024100
    36  C          0.71423000       0.42425870       0.76975900
    37  H          0.07560000       0.05610000       0.28590000
    38  H          0.42440000       0.55610000       0.21410000
    39  H          0.92440000       0.94390000       0.71410000
    40  H          0.57560000       0.44390000       0.78590000
    41  H          0.25860000       0.02400000       0.23680000
    42  H          0.24140000       0.52400000       0.26320000
    43  H          0.74140000       0.97600000       0.76320000
    44  H          0.75860000       0.47600000       0.73680000
    45  N          0.37892000       0.09060100       0.33102700
    46  N          0.12108000       0.59060100       0.16897300
    47  N          0.62108000       0.90939900       0.66897300
    48  N          0.87892000       0.40939900       0.83102700
    49  C          0.43263000       0.01597120       0.38688800
    50  C          0.06737000       0.51597120       0.11311200
    51  C          0.56737000       0.98402880       0.61311200
    52  C          0.93263000       0.48402880       0.88688800
    53  H          0.56390000       0.04080000       0.41680000
    54  H          0.93610000       0.54080000       0.08320000
    55  H          0.43610000       0.95920000       0.58320000
    56  H          0.06390000       0.45920000       0.91680000
    57  C          0.49133000       0.91514870       0.35665100
    58  C          0.00867000       0.41514870       0.14334900
    59  C          0.50867000       0.08485130       0.64334900
    60  C         -0.00867000       0.58485130       0.85665100
    61  H          0.52260000       0.86700000       0.39650000
    62  H         -0.02260000       0.36700000       0.10350000
    63  H          0.47740000       0.13300000       0.60350000
    64  H          0.02260000       0.63300000       0.89650000
    65  H          0.36770000       0.88930000       0.32450000
    66  H          0.13230000       0.38930000       0.17550000
    67  H          0.63230000       0.11070000       0.67550000
    68  H          0.86770000       0.61070000       0.82450000
    69  C          0.68553000       0.92293850       0.31525110
    70  C          0.81447000       0.42293850       0.18474890
    71  C          0.31447000       0.07706150       0.68474890
    72  C          0.18553000       0.57706150       0.81525110
    73  H          0.65540000       0.97090000       0.27600000
    74  H          0.84460000       0.47090000       0.22400000
    75  H          0.34460000       0.02910000       0.72400000
    76  H          0.15540000       0.52910000       0.77600000
    77  H          0.71610000       0.85730000       0.29570000
    78  H          0.78390000       0.35730000       0.20430000
    79  H          0.28390000       0.14270000       0.70430000
    80  H          0.21610000       0.64270000       0.79570000
    81  H          0.80980000       0.94570000       0.34750000
    82  H          0.69020000       0.44570000       0.15250000
    83  H          0.19020000       0.05430000       0.65250000
    84  H          0.30980000       0.55430000       0.84750000
    85  C          0.25733000       0.00794110       0.43676800
    86  C          0.24267000       0.50794110       0.06323200
    87  C          0.74267000      -0.00794110       0.56323200
    88  C          0.75733000       0.49205890       0.93676800
    89  N          0.14753000       0.08936110       0.44716800
    90  N          0.35247000       0.58936110       0.05283200
    91  N          0.85247000       0.91063890       0.55283200
    92  N          0.64753000       0.41063890       0.94716800
    93  H          0.05041600       0.08853110       0.47725000
    94  H          0.44958400       0.58853110       0.02275000
    95  H          0.94958400       0.91146890       0.52275000
    96  H          0.55041600       0.41146890       0.97725000
    97  H          0.17144000       0.14459000       0.42404000
    98  H          0.32856000       0.64459000       0.07596000
    99  H          0.82856000       0.85541000       0.57596000
   100  H          0.67144000       0.35541000       0.92404000
   101  O          0.22826190       0.92838200       0.46847600
   102  O          0.27173810       0.42838200       0.03152400
   103  O          0.77173810       0.07161800       0.53152400
   104  O          0.72826190       0.57161800       0.96847600
   105  C          0.04093000       0.38081120       0.39287800
   106  C          0.45907000       0.88081120       0.10712200
   107  C          0.95907000       0.61918880       0.60712200
   108  C          0.54093000       0.11918880       0.89287800
   109  C          0.86027000       0.44000120       0.38017900
   110  C          0.63973000       0.94000120       0.11982100
   111  C          0.13973000       0.55999880       0.61982100
   112  C          0.36027000       0.05999880       0.88017900
   113  H          0.72710000       0.41120000       0.36170000
   114  H          0.77290000       0.91120000       0.13830000
   115  H          0.27290000       0.58880000       0.63830000
   116  H          0.22710000       0.08880000       0.86170000
   117  C          0.87417000       0.54179120       0.39450900
   118  C          0.62583000       0.04179120       0.10549100
   119  C          0.12583000       0.45820880       0.60549100
   120  C          0.37417000       0.95820880       0.89450900
   121  C          0.07052000       0.58484120       0.42254800
   122  C          0.42948000       0.08484120       0.07745200
   123  C          0.92948000       0.41515880       0.57745200
   124  C          0.57052000       0.91515880       0.92254800
   125  C          0.25043000       0.52278120       0.43453800
   126  C          0.24957000       0.02278120       0.06546200
   127  C          0.74957000       0.47721880       0.56546200
   128  C          0.75043000       0.97721880       0.93453800
   129  H          0.38410000       0.55090000       0.45320000
   130  H          0.11590000       0.05090000       0.04680000
   131  H          0.61590000       0.44910000       0.54680000
   132  H          0.88410000       0.94910000       0.95320000
   133  C          0.23853000       0.42187120       0.42002900
   134  C          0.26147000       0.92187120       0.07997100
   135  C          0.76147000       0.57812880       0.57997100
   136  C          0.73853000       0.07812880       0.92002900
   137  H          0.36230000       0.38090000       0.42830000
   138  H          0.13770000       0.88090000       0.07170000
   139  H          0.63770000       0.61910000       0.57170000
   140  H          0.86230000       0.11910000       0.92830000
   141  O          0.03422000       0.28081800       0.37982700
   142  O          0.46578000       0.78081800       0.12017300
   143  O          0.96578000       0.71918200       0.62017300
   144  O          0.53422000       0.21918200       0.87982700
   145  H          0.89260000       0.26065000       0.36943000
   146  H          0.60740000       0.76065000       0.13057000
   147  H          0.10740000       0.73935000       0.63057000
   148  H          0.39260000       0.23935000       0.86943000
   149  O          0.69407810       0.59702100       0.37992800
   150  O          0.80592190       0.09702100       0.12007200
   151  O          0.30592190       0.40297900       0.62007200
   152  O          0.19407810       0.90297900       0.87992800
   153  H          0.72242000       0.66161800       0.39244000
   154  H          0.77758000       0.16161800       0.10756000
   155  H          0.27758000       0.33838200       0.60756000
   156  H          0.22242000       0.83838200       0.89244000
   157  C          0.07963000       0.69240120       0.43801900
   158  C          0.42037000       0.19240120       0.06198100
   159  C          0.92037000       0.30759880       0.56198100
   160  C          0.57963000       0.80759880       0.93801900
   161  O          0.92138000       0.74702900       0.42908700
   162  O          0.57862000       0.24702900       0.07091300
   163  O          0.07862000       0.25297100       0.57091300
   164  O          0.42138000       0.75297100       0.92908700
   165  O          0.27220190       0.72747900       0.46133700
   166  O          0.22779810       0.22747900       0.03866300
   167  O          0.72779810       0.27252100       0.53866300
   168  O          0.77220190       0.77252100       0.96133700
   169  H          0.26622000       0.79471700       0.46497110
   170  H          0.23378000       0.29471700       0.03502890
   171  H          0.73378000       0.20528300       0.53502890
   172  H          0.76622000       0.70528300       0.96497110
