data_XOGYID
_symmetry_space_group_name_H-M    'P1'
_symmetry_Int_Tables_number       1
loop_
_symmetry_equiv_pos_site_id
_symmetry_equiv_pos_as_xyz
1 x,y,z
_cell_length_a                   8.60876
_cell_length_b                   17.115517
_cell_length_c                   12.306312
_cell_angle_alpha                90.0
_cell_angle_beta                 107.6706
_cell_angle_gamma                90.0
loop_
_atom_site_label
_atom_site_type_symbol
_atom_site_fract_x
_atom_site_fract_y
_atom_site_fract_z
     1  Br         0.50547700       0.25000000       0.42157600
     2  Br         0.49452300       0.75000000       0.57842400
     3  Cl         0.82884140       0.94254300       0.76586110
     4  Cl         0.17115860       0.44254300       0.23413890
     5  Cl         0.17115860       0.05745700       0.23413890
     6  Cl         0.82884140       0.55745700       0.76586110
     7  Cl         0.14283150       0.86397300       0.73705120
     8  Cl         0.85716850       0.36397300       0.26294880
     9  Cl         0.85716850       0.13602700       0.26294880
    10  Cl         0.14283150       0.63602700       0.73705120
    11  Cl         0.36810130       0.95577300       0.62711110
    12  Cl         0.63189870       0.45577300       0.37288890
    13  Cl         0.63189870       0.04422700       0.37288890
    14  Cl         0.36810130       0.54422700       0.62711110
    15  Cl         0.27021120       0.12435600       0.52866100
    16  Cl         0.72978880       0.62435600       0.47133900
    17  Cl         0.72978880       0.87564400       0.47133900
    18  Cl         0.27021120       0.37564400       0.52866100
    19  Cl         0.42737150       0.15946900       0.10824110
    20  Cl         0.57262850       0.65946900       0.89175890
    21  Cl         0.57262850       0.84053100       0.89175890
    22  Cl         0.42737150       0.34053100       0.10824110
    23  Cl         0.50381160       0.06738700       0.90965110
    24  Cl         0.49618840       0.56738700       0.09034890
    25  Cl         0.49618840       0.93261300       0.09034890
    26  Cl         0.50381160       0.43261300       0.90965110
    27  N          0.67024000       0.11542000       0.71803000
    28  N          0.32976000       0.61542000       0.28197000
    29  N          0.32976000       0.88458000       0.28197000
    30  N          0.67024000       0.38458000       0.71803000
    31  N          0.78864000       0.18119190       0.59273000
    32  N          0.21136000       0.68119190       0.40727000
    33  N          0.21136000       0.81880810       0.40727000
    34  N          0.78864000       0.31880810       0.59273000
    35  N          0.61705000       0.25000000       0.67524000
    36  N          0.38295000       0.75000000       0.32476000
    37  N          0.00436000       0.25000000       0.55054000
    38  N         -0.00436000       0.75000000       0.44946000
    39  C          0.77045000       0.11692000       0.65284000
    40  C          0.22955000       0.61692000       0.34716000
    41  C          0.22955000       0.88308000       0.34716000
    42  C          0.77045000       0.38308000       0.65284000
    43  C          0.90385000       0.06462000       0.65234000
    44  C          0.09615000       0.56462000       0.34766000
    45  C          0.09615000       0.93538000       0.34766000
    46  C          0.90385000       0.43538000       0.65234000
    47  C          0.94895000       0.99137000       0.69864000
    48  C          0.05105000       0.49137000       0.30136000
    49  C          0.05105000       0.00863000       0.30136000
    50  C          0.94895000       0.50863000       0.69864000
    51  C          0.09105000       0.95718000       0.68854000
    52  C          0.90895000       0.45718000       0.31146000
    53  C          0.90895000       0.04282000       0.31146000
    54  C          0.09105000       0.54282000       0.68854000
    55  C          0.19215000      -0.00143000       0.63724000
    56  C          0.80785000       0.49857000       0.36276000
    57  C          0.80785000       0.00143000       0.36276000
    58  C          0.19215000       0.50143000       0.63724000
    59  C          0.15095000       0.07272000       0.59424000
    60  C          0.84905000       0.57272000       0.40576000
    61  C          0.84905000       0.92728000       0.40576000
    62  C          0.15095000       0.42728000       0.59424000
    63  C          0.00565000       0.10662000       0.59964000
    64  C         -0.00565000       0.60662000       0.40036000
    65  C         -0.00565000       0.89338000       0.40036000
    66  C          0.00565000       0.39338000       0.59964000
    67  C          0.93585000       0.18333000       0.57013000
    68  C          0.06415000       0.68333000       0.42987000
    69  C          0.06415000       0.81667000       0.42987000
    70  C          0.93585000       0.31667000       0.57013000
    71  C          0.60205000       0.18323000       0.73194000
    72  C          0.39795000       0.68323000       0.26806000
    73  C          0.39795000       0.81677000       0.26806000
    74  C          0.60205000       0.31677000       0.73194000
    75  C          0.54265000       0.20892000       0.82624000
    76  C          0.45735000       0.70892000       0.17376000
    77  C          0.45735000       0.79108000       0.17376000
    78  C          0.54265000       0.29108000       0.82624000
    79  C          0.50655000       0.16743000       0.91344000
    80  C          0.49345000       0.66743000       0.08656000
    81  C          0.49345000       0.83257000       0.08656000
    82  C          0.50655000       0.33257000       0.91344000
    83  C          0.47225000       0.20953000       0.00014000
    84  C          0.52775000       0.70953000      -0.00014000
    85  C          0.52775000       0.79047000      -0.00014000
    86  C          0.47225000       0.29047000       0.00014000
    87  B          0.67878000       0.25000000       0.57526000
    88  B          0.32122000       0.75000000       0.42474000
    89  C          0.92618900       0.25000000       0.00599000
    90  C          0.07381100       0.75000000      -0.00599000
    91  H          0.87090000       0.25000000       0.06200000
    92  H          0.12910000       0.75000000       0.93800000
    93  C          0.96462000       0.18105000       0.96687000
    94  C          0.03538000       0.68105000       0.03313000
    95  C          0.03538000       0.81895000       0.03313000
    96  C          0.96462000       0.31895000       0.96687000
    97  H          0.93260000       0.13310000      -0.00740000
    98  H          0.06740000       0.63310000       0.00740000
    99  H          0.06740000       0.86690000       0.00740000
   100  H          0.93260000       0.36690000      -0.00740000
   101  C          0.05109000       0.18106000       0.88917000
   102  C          0.94891000       0.68106000       0.11083000
   103  C          0.94891000       0.81894000       0.11083000
   104  C          0.05109000       0.31894000       0.88917000
   105  H          0.08280000       0.13300000       0.86350000
   106  H          0.91720000       0.63300000       0.13650000
   107  H          0.91720000       0.86700000       0.13650000
   108  H          0.08280000       0.36700000       0.86350000
   109  C          0.09071300       0.25000000       0.84909000
   110  C          0.90928700       0.75000000       0.15091000
   111  H          0.14620000       0.25000000       0.79300000
   112  H          0.85380000       0.75000000       0.20700000
