data_XOGYUR
_symmetry_space_group_name_H-M    'P1'
_symmetry_Int_Tables_number       1
loop_
_symmetry_equiv_pos_site_id
_symmetry_equiv_pos_as_xyz
1 x,y,z
_cell_length_a                   7.81742
_cell_length_b                   8.29162
_cell_length_c                   22.87014
_cell_angle_alpha                79.6992
_cell_angle_beta                 81.9242
_cell_angle_gamma                68.9832
loop_
_atom_site_label
_atom_site_type_symbol
_atom_site_fract_x
_atom_site_fract_y
_atom_site_fract_z
     1  N          0.88917190       0.37206180       0.91650600
     2  N          0.11082810       0.62793820       0.08349400
     3  C          0.84682000       0.52902000       0.93185800
     4  C          0.15318000       0.47098000       0.06814200
     5  H          0.87628600       0.61522800       0.90488800
     6  H          0.12371400       0.38477200       0.09511200
     7  C          0.84663000       0.24202000       0.95502800
     8  C          0.15337000       0.75798000       0.04497200
     9  H          0.87441600       0.13329000       0.94311000
    10  H          0.12558400       0.86671000       0.05689000
    11  C          0.76473000       0.27072000       0.00999800
    12  C          0.23527000       0.72928000       0.99000200
    13  H          0.73945600       0.18038200       0.03590100
    14  H          0.26054400       0.81961800       0.96409900
    15  C          0.71672000       0.43522000       0.02876700
    16  C          0.28328000       0.56478000       0.97123300
    17  C          0.63223000       0.47413000       0.08580800
    18  C          0.36777000       0.52587000       0.91419200
    19  H          0.60462100       0.38849600       0.11360600
    20  H          0.39537900       0.61150400       0.88639400
    21  C          0.59143000       0.63693000       0.09992900
    22  C          0.40857000       0.36307000       0.90007100
    23  H          0.53620700       0.66130300       0.13760100
    24  H          0.46379300       0.33869700       0.86239900
    25  C          0.63093000       0.76923000       0.05886100
    26  C          0.36907000       0.23077000       0.94113900
    27  H          0.60016800       0.87996800       0.06948700
    28  H          0.39983200       0.12003200       0.93051300
    29  C          0.71353000       0.73682000       0.00375900
    30  C          0.28647000       0.26318000      -0.00375900
    31  H          0.74022900       0.82446800       0.97677500
    32  H          0.25977100       0.17553200       0.02322500
    33  C          0.75842000       0.56842000       0.98782700
    34  C          0.24158000       0.43158000       0.01217300
    35  C          0.98313000       0.33543000       0.85640800
    36  C          0.01687000       0.66457000       0.14359200
    37  H          0.05728800       0.21266100       0.85865100
    38  H          0.94271200       0.78733900       0.14134900
    39  H          0.06499600       0.40220000       0.84467300
    40  H          0.93500400       0.59780000       0.15532700
    41  C          0.84973000       0.38033000       0.80974800
    42  C          0.15027000       0.61967000       0.19025200
    43  H          0.78657500       0.50553300       0.80360400
    44  H          0.21342500       0.49446700       0.19639600
    45  H          0.75822200       0.32500200       0.82355400
    46  H          0.24177800       0.67499800       0.17644600
    47  C          0.94723000       0.32052000       0.75098800
    48  C          0.05277000       0.67948000       0.24901200
    49  H          0.04347700       0.37063600       0.73882000
    50  H          0.95652300       0.62936400       0.26118000
    51  H          0.00531700       0.19466000       0.75719300
    52  H         -0.00531700       0.80534000       0.24280700
    53  C          0.82233000       0.36993000       0.70122900
    54  C          0.17767000       0.63007000       0.29877100
    55  H          0.76989300       0.49612100       0.69341500
    56  H          0.23010700       0.50387900       0.30658500
    57  H          0.72189100       0.32580600       0.71431000
    58  H          0.27810900       0.67419400       0.28569000
    59  C          0.91673000       0.30163000       0.64373900
    60  C          0.08327000       0.69837000       0.35626100
    61  H          0.02494500       0.33529100       0.63300900
    62  H          0.97505500       0.66470900       0.36699100
    63  H          0.95786100       0.17514300       0.65065800
    64  H          0.04213900       0.82485700       0.34934200
    65  C          0.79843000       0.36533000       0.59168900
    66  C          0.20157000       0.63467000       0.40831100
    67  H          0.75872200       0.49167100       0.58434300
    68  H          0.24127800       0.50832900       0.41565700
    69  H          0.68937600       0.33299500       0.60255400
    70  H          0.31062400       0.66700500       0.39744600
    71  C          0.89313000       0.29433000       0.53431900
    72  C          0.10687000       0.70567000       0.46568100
    73  H          0.00617600       0.32029100       0.52473200
    74  H         -0.00617600       0.67970900       0.47526800
    75  H          0.92592300       0.16840700       0.54091900
    76  H          0.07407700       0.83159300       0.45908100
    77  C          0.77853000       0.36683000       0.48153900
    78  C          0.22147000       0.63317000       0.51846100
    79  H          0.74685600       0.49254400       0.47473000
    80  H          0.25314400       0.50745600       0.52527000
    81  H          0.66470700       0.34210600       0.49139400
    82  H          0.33529300       0.65789400       0.50860600
    83  C          0.87053000       0.29543000       0.42423900
    84  C          0.12947000       0.70457000       0.57576100
    85  H          0.98610100       0.31677800       0.41496400
    86  H          0.01389900       0.68322200       0.58503600
    87  H          0.89848200       0.17003400       0.43059000
    88  H          0.10151800       0.82996600       0.56941000
    89  C          0.75713000       0.37273000       0.37122900
    90  C          0.24287000       0.62727000       0.62877100
    91  H          0.64088200       0.35267800       0.38090700
    92  H          0.35911800       0.64732200       0.61909300
    93  H          0.73033200       0.49785800       0.36480900
    94  H          0.26966800       0.50214200       0.63519100
    95  C          0.84463000       0.30243000       0.31385100
    96  C          0.15537000       0.69757000       0.68614900
    97  H          0.86788800       0.17779300       0.31960900
    98  H          0.13211200       0.82220700       0.68039100
    99  H          0.96220800       0.31969800       0.30439100
   100  H          0.03779200       0.68030200       0.69560900
   101  C          0.72904000       0.38654000       0.26147100
   102  C          0.27096000       0.61346000       0.73852900
   103  H          0.79459500       0.33897900       0.22620000
   104  H          0.20540500       0.66102100       0.77380000
   105  H          0.70395500       0.51018300       0.25566000
   106  H          0.29604500       0.48981700       0.74434000
   107  H          0.61529200       0.36382500       0.26934000
   108  H          0.38470800       0.63617500       0.73066000
   109  O          0.53162000       0.88342000       0.85981600
   110  O          0.46838000       0.11658000       0.14018400
   111  C          0.45033000       0.97863000       0.80670900
   112  C          0.54967000       0.02137000       0.19329100
   113  H          0.43104800       0.10111500       0.80623400
   114  H          0.56895200       0.89888500       0.19376600
   115  H          0.33063900       0.96756900       0.80730800
   116  H          0.66936100       0.03243100       0.19269200
   117  C          0.56143000       0.92123000       0.75058800
   118  C          0.43857000       0.07877000       0.24941200
   119  H          0.58598800       0.79745900       0.75170000
   120  H          0.41401200       0.20254100       0.24830000
   121  H          0.67850300       0.93839900       0.74865900
   122  H          0.32149700       0.06160100       0.25134100
   123  C          0.46643000       0.01903000       0.69497800
   124  C          0.53357000       0.98097000       0.30502200
   125  H          0.34364400       0.01270000       0.69912800
   126  H          0.65635600      -0.01270000       0.30087200
   127  H          0.45386500       0.14084300       0.69179400
   128  H          0.54613500       0.85915700       0.30820600
   129  C          0.56553000       0.95083000       0.63813800
   130  C          0.43447000       0.04917000       0.36186200
   131  H          0.58941700       0.82622500       0.64287100
   132  H          0.41058300       0.17377500       0.35712900
   133  H          0.68328500       0.96830800       0.63182000
   134  H          0.31671500       0.03169200       0.36818000
   135  C          0.46143000       0.03623000       0.58338800
   136  C          0.53857000       0.96377000       0.41661200
   137  H          0.34005600       0.02626100       0.59085200
   138  H          0.65994400       0.97373900       0.40914800
   139  H          0.44535600       0.15944400       0.57698000
   140  H          0.55464400       0.84055600       0.42302000
   141  C          0.55393000       0.95943000       0.52708800
   142  C          0.44607000       0.04057000       0.47291200
   143  H          0.67328600       0.97344200       0.51874200
   144  H          0.32671400       0.02655800       0.48125800
   145  H          0.57413100       0.83533700       0.53395600
   146  H          0.42586900       0.16466300       0.46604400
   147  H          0.64240000       0.90640000       0.85581300
   148  H          0.35760000       0.09360000       0.14418700
   149  Br         0.94301300       0.90584200       0.85788200
   150  Br         0.05698700       0.09415800       0.14211800
