data_XOGZUS
_symmetry_space_group_name_H-M    'P1'
_symmetry_Int_Tables_number       1
loop_
_symmetry_equiv_pos_site_id
_symmetry_equiv_pos_as_xyz
1 x,y,z
_cell_length_a                   7.86472
_cell_length_b                   8.32083
_cell_length_c                   20.29386
_cell_angle_alpha                80.2862
_cell_angle_beta                 82.4082
_cell_angle_gamma                68.2383
loop_
_atom_site_label
_atom_site_type_symbol
_atom_site_fract_x
_atom_site_fract_y
_atom_site_fract_z
     1  N          0.11342000       0.63138190       0.59264800
     2  N          0.88658000       0.36861810       0.40735200
     3  C          0.15513000       0.75922000       0.54929110
     4  C          0.84487000       0.24078000       0.45070890
     5  H          0.12701800       0.86855600       0.56244500
     6  H          0.87298200       0.13144400       0.43755500
     7  C          0.23673000       0.72743000       0.48774110
     8  C          0.76327000       0.27257000       0.51225890
     9  H          0.26237300       0.81586300       0.45859400
    10  H          0.73762700       0.18413700       0.54140600
    11  C          0.28362000       0.56263000       0.46686100
    12  C          0.71638000       0.43737000       0.53313900
    13  C          0.36743000       0.52043000       0.40298100
    14  C          0.63257000       0.47957000       0.59701900
    15  H          0.39460900       0.60455400       0.37165500
    16  H          0.60539100       0.39544600       0.62834500
    17  C          0.40823000       0.35743000       0.38723120
    18  C          0.59177000       0.64257000       0.61276880
    19  H          0.46305300       0.33129800       0.34495900
    20  H          0.53694700       0.66870200       0.65504100
    21  C          0.36923000       0.22723000       0.43348120
    22  C          0.63077000       0.77277000       0.56651880
    23  H          0.39990800       0.11596500       0.42176700
    24  H          0.60009200       0.88403500       0.57823300
    25  C          0.28713000       0.26303000       0.49512110
    26  C          0.71287000       0.73697000       0.50487890
    27  H          0.26032200       0.17696200       0.52548600
    28  H          0.73967800       0.82303800       0.47451400
    29  C          0.24232000       0.43232000       0.51295900
    30  C          0.75768000       0.56768000       0.48704100
    31  C          0.15463000       0.47392000       0.57563100
    32  C          0.84537000       0.52608000       0.42436900
    33  H          0.12479100       0.38939000       0.60589100
    34  H          0.87520900       0.61061000       0.39410900
    35  C          0.02073000       0.67083000       0.65992100
    36  C          0.97927000       0.32917000       0.34007900
    37  H          0.93787600       0.60690000       0.67280700
    38  H          0.06212400       0.39310000       0.32719300
    39  H          0.94791700       0.79436600       0.65732600
    40  H          0.05208300       0.20563400       0.34267400
    41  C          0.15393000       0.62383000       0.71278100
    42  C          0.84607000       0.37617000       0.28721900
    43  H          0.24537300       0.67708000       0.69775300
    44  H          0.75462700       0.32292000       0.30224700
    45  H          0.21658200       0.49820900       0.71930900
    46  H          0.78341800       0.50179100       0.28069100
    47  C          0.05813000       0.68413000       0.77884100
    48  C          0.94187000       0.31587000       0.22115900
    49  H         -0.00014300       0.81019500       0.77221000
    50  H          0.00014300       0.18980500       0.22779000
    51  H          0.96207200       0.63564300       0.79214100
    52  H          0.03792800       0.36435700       0.20785900
    53  C          0.18323000       0.63323000       0.83498110
    54  C          0.81677000       0.36677000       0.16501890
    55  H          0.28293700       0.67626200       0.82068000
    56  H          0.71706300       0.32373800       0.17932000
    57  H          0.23635500       0.50688400       0.84315700
    58  H          0.76364500       0.49311600       0.15684300
    59  C          0.09063000       0.70093000       0.89995110
    60  C          0.90937000       0.29907000       0.10004890
    61  H          0.04870000       0.82739300       0.89279200
    62  H          0.95130000       0.17260700       0.10720800
    63  H          0.98311100       0.66829300       0.91168900
    64  H          0.01688900       0.33170700       0.08831100
    65  C          0.20953000       0.63593000       0.95841120
    66  C          0.79047000       0.36407000       0.04158880
    67  H          0.31701200       0.66861700       0.94667200
    68  H          0.68298800       0.33138300       0.05332800
    69  H          0.25156400       0.50943200       0.96553000
    70  H          0.74843600       0.49056800       0.03447000
    71  C          0.11703000       0.70353000       0.02350120
    72  C          0.88297000       0.29647000       0.97649880
    73  H          0.08326000       0.82928300       0.01747500
    74  H          0.91674000       0.17071700       0.98252500
    75  H          0.00474600       0.67824400       0.03370600
    76  H         -0.00474600       0.32175600       0.96629400
    77  C          0.23353000       0.62703000       0.08257120
    78  C          0.76647000       0.37297000       0.91742880
    79  H          0.26710100       0.50116900       0.08842600
    80  H          0.73289900       0.49883100       0.91157400
    81  H          0.34599400       0.65177900       0.07208000
    82  H          0.65400600       0.34822100       0.92792000
    83  C          0.14454000       0.69263000       0.14788120
    84  C          0.85546000       0.30737000       0.85211880
    85  H          0.02989600       0.67164000       0.15784100
    86  H          0.97010400       0.32836000       0.84215900
    87  H          0.11555200       0.81775500       0.14284300
    88  H          0.88444800       0.18224500       0.85715700
    89  C          0.26224000       0.60844000       0.20652130
    90  C          0.73776000       0.39156000       0.79347870
    91  H          0.37547800       0.62965500       0.19741500
    92  H          0.62452200       0.37034500       0.80258500
    93  H          0.28767800       0.48492300       0.21306000
    94  H          0.71232200       0.51507700       0.78694000
    95  H          0.19801700       0.65720200       0.24628000
    96  H          0.80198300       0.34279800       0.75372000
    97  O          0.47423000       0.12542000       0.65708800
    98  O          0.52577000       0.87458000       0.34291200
    99  C          0.55773000       0.03153000       0.71629120
   100  C          0.44227000       0.96847000       0.28370880
   101  H          0.67555300       0.04438300       0.71566500
   102  H          0.32444700       0.95561700       0.28433500
   103  H          0.58079400       0.90860400       0.71624800
   104  H          0.41920600       0.09139600       0.28375200
   105  C          0.44793000       0.08683000       0.77981110
   106  C          0.55207000       0.91317000       0.22018890
   107  H          0.33168800       0.07012100       0.78141200
   108  H          0.66831200       0.92987900       0.21858800
   109  H          0.42168400       0.21036500       0.77953700
   110  H          0.57831600       0.78963500       0.22046300
   111  C          0.54353000      -0.01223000       0.84218110
   112  C          0.45647000       0.01223000       0.15781890
   113  H          0.55844400       0.86588800       0.84461000
   114  H          0.44155600       0.13411200       0.15539000
   115  H          0.66507100      -0.00569200       0.83820000
   116  H          0.33492900       0.00569200       0.16180000
   117  C          0.44443000       0.05323000       0.90633110
   118  C          0.55557000       0.94677000       0.09366890
   119  H          0.32697800       0.03728000       0.91224100
   120  H          0.67302200       0.96272000       0.08775900
   121  H          0.42004300       0.17740900       0.90241500
   122  H          0.57995700       0.82259100       0.09758500
   123  C          0.54733000       0.96427000       0.96800110
   124  C          0.45267000       0.03573000       0.03199890
   125  H          0.56606500       0.84097900       0.97318200
   126  H          0.43393500       0.15902100       0.02681800
   127  H          0.66728600       0.97492400       0.96109100
   128  H          0.33271400       0.02507600       0.03890900
   129  H          0.36850000       0.09050000       0.66261900
   130  H          0.63150000       0.90950000       0.33738100
   131  Br         0.06859300       0.09603300       0.65901200
   132  Br         0.93140700       0.90396700       0.34098800
