data_XOHBEF
_symmetry_space_group_name_H-M    'P1'
_symmetry_Int_Tables_number       1
loop_
_symmetry_equiv_pos_site_id
_symmetry_equiv_pos_as_xyz
1 x,y,z
_cell_length_a                   7.561801
_cell_length_b                   7.738301
_cell_length_c                   22.03074
_cell_angle_alpha                80.92001
_cell_angle_beta                 83.31801
_cell_angle_gamma                76.93001
loop_
_atom_site_label
_atom_site_type_symbol
_atom_site_fract_x
_atom_site_fract_y
_atom_site_fract_z
     1  Br         0.51225300       0.16259200       0.85541200
     2  Br         0.48774700       0.83740800       0.14458800
     3  O          0.81343000       0.95588000       0.75415800
     4  O          0.18657000       0.04412000       0.24584200
     5  H          0.74340000       0.00540000       0.77991400
     6  H          0.25660000      -0.00540000       0.22008600
     7  C          0.77193000       0.04413000       0.69449900
     8  C          0.22807000       0.95587000       0.30550100
     9  H          0.77390900       0.16995200       0.69177200
    10  H          0.22609100       0.83004800       0.30822800
    11  H          0.65070300       0.03491300       0.68698400
    12  H          0.34929700       0.96508700       0.31301600
    13  C          0.90863000       0.96057000       0.64686800
    14  C          0.09137000       0.03943000       0.35313200
    15  H          0.90722900       0.83420900       0.65089900
    16  H          0.09277100       0.16579100       0.34910100
    17  H          0.02895500       0.97012900       0.65513600
    18  H          0.97104500       0.02987100       0.34486400
    19  C          0.87592000       0.04372000       0.58103800
    20  C          0.12408000       0.95628000       0.41896200
    21  H          0.87643200       0.17023200       0.57702100
    22  H          0.12356800       0.82976800       0.42297900
    23  H          0.75594100       0.03331000       0.57260900
    24  H          0.24405900       0.96669000       0.42739100
    25  C          0.01542000       0.95948000       0.53303800
    26  C          0.98458000       0.04052000       0.46696200
    27  H          0.13524100       0.97023300       0.54153400
    28  H          0.86475900       0.02976700       0.45846600
    29  H          0.01521100       0.83288300       0.53732600
    30  H          0.98478900       0.16711700       0.46267400
    31  N          0.26618170       0.69959170       0.89724600
    32  N          0.73381830       0.30040830       0.10275400
    33  C          0.23432000       0.53722000       0.91512700
    34  C          0.76568000       0.46278000       0.08487300
    35  H          0.21210600       0.47206900       0.88584200
    36  H          0.78789400       0.52793100       0.11415800
    37  C          0.30522000       0.79832000       0.93862800
    38  C          0.69478000       0.20168000       0.06137200
    39  H          0.33140100       0.91038900       0.92482800
    40  H          0.66859900       0.08961100       0.07517200
    41  C          0.30562000       0.73352000      -0.00081200
    42  C          0.69438000       0.26648000       0.00081200
    43  H          0.33204000       0.80161600       0.02678100
    44  H          0.66796000       0.19838400       0.97321900
    45  C          0.26639190       0.56362000       0.02119700
    46  C          0.73360810       0.43638000       0.97880300
    47  C          0.25972000       0.49092000       0.08416800
    48  C          0.74028000       0.50908000       0.91583200
    49  H          0.27953600       0.55639800       0.11370800
    50  H          0.72046400       0.44360200       0.88629200
    51  C          0.22392000       0.32423000       0.10150800
    52  C          0.77608000       0.67577000       0.89849200
    53  H          0.21910600       0.27738700       0.14306600
    54  H          0.78089400       0.72261300       0.85693400
    55  C          0.19412000       0.22192000       0.05781900
    56  C          0.80588000       0.77808000       0.94218100
    57  H          0.17079800       0.10825800       0.07071400
    58  H          0.82920200       0.89174200       0.92928600
    59  C          0.19932000       0.28822000      -0.00335200
    60  C          0.80068000       0.71178000       0.00335200
    61  H          0.18042800       0.21963500       0.96786400
    62  H          0.81957200       0.78036500       0.03213600
    63  C          0.23341180       0.46152000       0.97716700
    64  C          0.76658820       0.53848000       0.02283300
    65  C          0.25842000       0.77772000       0.83089800
    66  C          0.74158000       0.22228000       0.16910200
    67  H          0.26455500       0.90293100       0.82663500
    68  H          0.73544500       0.09706900       0.17336500
    69  H          0.14270600       0.77154000       0.81733400
    70  H          0.85729400       0.22846000       0.18266600
    71  C          0.41112000       0.68202000       0.79000700
    72  C          0.58888000       0.31798000       0.20999300
    73  H          0.52618200       0.70210600       0.79958900
    74  H          0.47381800       0.29789400       0.20041100
    75  H          0.41536500       0.55429500       0.79812700
    76  H          0.58463500       0.44570500       0.20187300
    77  C          0.38572000       0.74682000       0.72271700
    78  C          0.61428000       0.25318000       0.27728300
    79  H          0.38472800       0.87392700       0.71480800
    80  H          0.61527200       0.12607300       0.28519200
    81  H          0.26787800       0.73118700       0.71399100
    82  H          0.73212200       0.26881300       0.28600900
    83  C          0.53142000       0.65122000       0.67911700
    84  C          0.46858000       0.34878000       0.32088300
    85  H          0.53082000       0.52434900       0.68627000
    86  H          0.46918000       0.47565100       0.31373000
    87  H          0.64955600       0.66492900       0.68816200
    88  H          0.35044400       0.33507100       0.31183800
    89  C          0.50522000       0.72082000       0.61172700
    90  C          0.49478000       0.27918000       0.38827300
    91  H          0.38678600       0.70674400       0.60301900
    92  H          0.61321400       0.29325600       0.39698100
    93  H          0.50421900       0.84796500       0.60503100
    94  H          0.49578100       0.15203500       0.39496900
    95  C          0.64782000       0.63042000       0.56640800
    96  C          0.35218000       0.36958000       0.43359200
    97  H          0.64641500       0.50381900       0.57195700
    98  H          0.35358500       0.49618100       0.42804300
    99  H          0.76682000       0.64152500       0.57557300
   100  H          0.23318000       0.35847500       0.42442700
   101  C          0.62082000       0.70672000       0.49954800
   102  C          0.37918000       0.29328000       0.50045200
   103  H          0.50155100       0.69559600       0.49062400
   104  H          0.49844900       0.30440400       0.50937600
   105  H          0.62158500       0.83335000       0.49426500
   106  H          0.37841500       0.16665000       0.50573500
   107  C          0.76152000       0.61922000       0.45305800
   108  C          0.23848000       0.38078000       0.54694200
   109  H          0.75902400       0.49299800       0.45755500
   110  H          0.24097600       0.50700200       0.54244500
   111  H          0.88115700       0.62812600       0.46231000
   112  H          0.11884300       0.37187400       0.53769000
   113  C          0.73452000       0.69962000       0.38667800
   114  C          0.26548000       0.30038000       0.61332200
   115  H          0.61519500       0.68967700       0.37740500
   116  H          0.38480500       0.31032300       0.62259500
   117  H          0.73563600       0.82603300       0.38236500
   118  H          0.26436400       0.17396700       0.61763500
   119  C          0.87573000       0.61422000       0.33958800
   120  C          0.12427000       0.38578000       0.66041200
   121  H         -0.00449400       0.62036000       0.34957600
   122  H          0.00449400       0.37964000       0.65042400
   123  H          0.87159800       0.48871300       0.34273500
   124  H          0.12840200       0.51128700       0.65726500
   125  C          0.85083000       0.69993000       0.27382900
   126  C          0.14917000       0.30007000       0.72617100
   127  H          0.85539700       0.82533200       0.27068900
   128  H          0.14460300       0.17466800       0.72931100
   129  H          0.73065000       0.69441800       0.26396600
   130  H          0.26935000       0.30558200       0.73603400
   131  C         -0.00947000       0.61504000       0.22654100
   132  C          0.00947000       0.38496000       0.77345900
   133  H          0.96107800       0.67189800       0.18592800
   134  H          0.03892200       0.32810200       0.81407200
   135  H         -0.00976400       0.48979900       0.23009200
   136  H          0.00976400       0.51020100       0.76990800
   137  H          0.10904000       0.62925700       0.23353500
   138  H          0.89096000       0.37074300       0.76646500
