data_XOHQIY01
_symmetry_space_group_name_H-M    'P1'
_symmetry_Int_Tables_number       1
loop_
_symmetry_equiv_pos_site_id
_symmetry_equiv_pos_as_xyz
1 x,y,z
_cell_length_a                   10.83942
_cell_length_b                   16.38852
_cell_length_c                   11.15922
_cell_angle_alpha                90.0
_cell_angle_beta                 117.3212
_cell_angle_gamma                90.0
loop_
_atom_site_label
_atom_site_type_symbol
_atom_site_fract_x
_atom_site_fract_y
_atom_site_fract_z
     1  O          0.28062000       0.62218140       0.86718000
     2  O          0.71938000       0.12218140       0.13282000
     3  H          0.33947600       0.58487100       0.90241400
     4  H          0.66052400       0.08487100       0.09758600
     5  O          0.27312000       0.62523140       0.51842000
     6  O          0.72688000       0.12523140       0.48158000
     7  C          0.23223000       0.64580170       0.95417000
     8  C          0.76777000       0.14580170       0.04583000
     9  C          0.11513000       0.69864180       0.90007000
    10  C          0.88487000       0.19864180       0.09993000
    11  H          0.07607500       0.71529600       0.80841800
    12  H          0.92392500       0.21529600       0.19158200
    13  C          0.05883000       0.72548180       0.98087000
    14  C          0.94117000       0.22548180       0.01913000
    15  H         -0.01881800       0.76124200       0.94421500
    16  H          0.01881800       0.26124200       0.05578500
    17  C          0.11313000       0.70134160       0.11693000
    18  C          0.88687000       0.20134160       0.88307000
    19  C          0.05612000       0.72674170       0.20263000
    20  C          0.94388000       0.22674170       0.79737000
    21  H          0.97813400       0.76224100       0.16786900
    22  H          0.02186600       0.26224100       0.83213100
    23  C          0.11063000       0.70140170       0.33423000
    24  C          0.88937000       0.20140170       0.66577000
    25  H          0.07101800       0.71966400       0.38984500
    26  H          0.92898200       0.21966400       0.61015500
    27  C          0.22623000       0.64779170       0.38683000
    28  C          0.77377000       0.14779170       0.61317000
    29  C          0.28623000       0.62224170       0.30793000
    30  C          0.71377000       0.12224170       0.69207000
    31  H          0.36460200       0.58710000       0.34478600
    32  H          0.63539800       0.08710000       0.65521400
    33  C          0.23112000       0.64824160       0.17193000
    34  C          0.76888000       0.14824160       0.82807000
    35  C          0.28933000       0.62219170       0.08733000
    36  C          0.71067000       0.12219170       0.91267000
    37  H          0.36887100       0.58793200       0.12307800
    38  H          0.63112900       0.08793200       0.87692200
    39  H          0.33050000       0.57930000       0.54350000
    40  H          0.66950000       0.07930000       0.45650000
    41  N          0.46102000       0.49327130       0.93878000
    42  N          0.53898000      -0.00672870       0.06122000
    43  C          0.40633000       0.42379160       0.86968000
    44  C          0.59367000       0.92379160       0.13032000
    45  C          0.25853000       0.41651180       0.79707000
    46  C          0.74147000       0.91651180       0.20293000
    47  H          0.20120700       0.46026500       0.79746800
    48  H          0.79879300       0.96026500       0.20253200
    49  C          0.20013000       0.34728180       0.72767000
    50  C          0.79987000       0.84728180       0.27233000
    51  H          0.10178200       0.34290100       0.68094800
    52  H          0.89821800       0.84290100       0.31905200
    53  C          0.28273000       0.28115180       0.72347000
    54  C          0.71727000       0.78115180       0.27653000
    55  H          0.23933300       0.23337700       0.67379200
    56  H          0.76066700       0.73337700       0.32620800
    57  C          0.42343000       0.28592170       0.79037000
    58  C          0.57657000       0.78592170       0.20963000
    59  H          0.47788300       0.24157700       0.78652700
    60  H          0.52211700       0.74157700       0.21347300
    61  C          0.49003000       0.35715150       0.86638000
    62  C          0.50997000       0.85715150       0.13362000
    63  C          0.63383000       0.36568160       0.93757000
    64  C          0.36617000       0.86568160       0.06243000
    65  H          0.69231000       0.32296900       0.93600300
    66  H          0.30769000       0.82296900       0.06399700
    67  C          0.69203000       0.43621160       0.01062000
    68  C          0.30797000       0.93621160      -0.01062000
    69  C          0.83893000       0.44866190       0.08633000
    70  C          0.16107000       0.94866190       0.91367000
    71  H          0.90088600       0.40721000       0.08790100
    72  H          0.09911400       0.90721000       0.91209900
    73  C          0.89053000       0.51912000       0.15583000
    74  C          0.10947000       0.01912000       0.84417000
    75  H         -0.01198600       0.52677000       0.20506600
    76  H          0.01198600       0.02677000       0.79493400
    77  C          0.79873000       0.58130180       0.15483000
    78  C          0.20127000       0.08130180       0.84517000
    79  H          0.83597800       0.63001000       0.20450800
    80  H          0.16402200       0.13001000       0.79549200
    81  C          0.65813000       0.57257170       0.08403000
    82  C          0.34187000       0.07257170       0.91597000
    83  H          0.59863300       0.61501600       0.08445300
    84  H          0.40136700       0.11501600       0.91554700
    85  C          0.60043000       0.49970150       0.00922000
    86  C          0.39957000      -0.00029850      -0.00922000
    87  N          0.53773000       0.48837140       0.30912000
    88  N          0.46227000       0.98837140       0.69088000
    89  C          0.48873000       0.41744180       0.24383000
    90  C          0.51127000       0.91744180       0.75617000
    91  C          0.34104000       0.40982000       0.16553000
    92  C          0.65896000       0.90982000       0.83447000
    93  H          0.28199600       0.45306200       0.16393600
    94  H          0.71800400       0.95306200       0.83606400
    95  C          0.28556000       0.34042000       0.09344000
    96  C          0.71444000       0.84042000       0.90656000
    97  H          0.18780700       0.33625500       0.03947100
    98  H          0.81219300       0.83625500       0.96052900
    99  C          0.37266000       0.27443000       0.09835000
   100  C          0.62734000       0.77443000       0.90165000
   101  H          0.33178900       0.22610200       0.04870500
   102  H          0.66821100       0.72610200       0.95129500
   103  C          0.51256000       0.27862000       0.17225000
   104  C          0.48744000       0.77862000       0.82775000
   105  H          0.56880300       0.23364300       0.17433800
   106  H          0.43119700       0.73364300       0.82566200
   107  C          0.57515000       0.35122000       0.24704000
   108  C          0.42485000       0.85122000       0.75296000
   109  C          0.71935000       0.36222000       0.32174000
   110  C          0.28065000       0.86222000       0.67826000
   111  H          0.78038900       0.31923800       0.32675300
   112  H          0.21961100       0.81923800       0.67324700
   113  C          0.77334000       0.43542000       0.38843000
   114  C          0.22666000       0.93542000       0.61157000
   115  C          0.91694000       0.45243000       0.46104000
   116  C          0.08306000       0.95243000       0.53896000
   117  H         -0.01814100       0.41146800       0.46778700
   118  H          0.01814100       0.91146800       0.53221300
   119  C          0.96434000       0.52593000       0.52153000
   120  C          0.03566000       0.02593000       0.47847000
   121  H          0.06123900       0.53637800       0.56872000
   122  H          0.93876100       0.03637800       0.43128000
   123  C          0.86763000       0.58663000       0.51323000
   124  C          0.13237000       0.08663000       0.48677000
   125  H          0.90086600       0.63765600       0.55628800
   126  H          0.09913400       0.13765600       0.44371200
   127  C          0.72923000       0.57362000       0.44543000
   128  C          0.27077000       0.07362000       0.55457000
   129  H          0.66681200       0.61527900       0.44193400
   130  H          0.33318800       0.11527900       0.55806600
   131  C          0.67593000       0.49751180       0.37893000
   132  C          0.32407000      -0.00248820       0.62107000
   133  N          0.44372000       0.49111130       0.58412000
   134  N          0.55628000       0.99111130       0.41588000
   135  C          0.39103000       0.42049160       0.51922000
   136  C          0.60897000       0.92049160       0.48078000
   137  C          0.24453000       0.41350170       0.43933000
   138  C          0.75547000       0.91350170       0.56067000
   139  H          0.18631500       0.45866800       0.43154300
   140  H          0.81368500       0.95866800       0.56845700
   141  C          0.18743000       0.34260180       0.37423000
   142  C          0.81257000       0.84260180       0.62577000
   143  H          0.08948700       0.33877500       0.32182600
   144  H          0.91051300       0.83877500       0.67817400
   145  C          0.27153000       0.27416180       0.38323000
   146  C          0.72847000       0.77416180       0.61677000
   147  H          0.22967900       0.22491200       0.33783200
   148  H          0.77032100       0.72491200       0.66216800
   149  C          0.41173000       0.27906170       0.45653000
   150  C          0.58827000       0.77906170       0.54347000
   151  H          0.46747200       0.23333500       0.46076300
   152  H          0.53252800       0.73333500       0.53923700
   153  C          0.47623000       0.35167160       0.52712000
   154  C          0.52377000       0.85167160       0.47288000
   155  C          0.61973000       0.36001170       0.60383000
   156  C          0.38027000       0.86001170       0.39617000
   157  H          0.67927000       0.31591100       0.61001400
   158  H          0.32073000       0.81591100       0.38998600
   159  C          0.67593000       0.43293160       0.67122000
   160  C          0.32407000       0.93293160       0.32878000
   161  C          0.82143000       0.44520190       0.75173000
   162  C          0.17857000       0.94520190       0.24827000
   163  H          0.88442200       0.40317300       0.75796700
   164  H          0.11557800       0.90317300       0.24203300
   165  C          0.87083000       0.51642000       0.81953000
   166  C          0.12917000       0.01642000       0.18047000
   167  H          0.96800200       0.52391700       0.87243200
   168  H          0.03199800       0.02391700       0.12756800
   169  C          0.77733000       0.57950190       0.81133000
   170  C          0.22267000       0.07950190       0.18867000
   171  H          0.81281300       0.62842500       0.86099400
   172  H          0.18718700       0.12842500       0.13900600
   173  C          0.63783000       0.57118160       0.73363000
   174  C          0.36217000       0.07118160       0.26637000
   175  H          0.57724200       0.61447500       0.72841500
   176  H          0.42275800       0.11447500       0.27158500
   177  C          0.58223000       0.49753160       0.65992000
   178  C          0.41777000      -0.00246840       0.34008000
