data_XOHWOH
_symmetry_space_group_name_H-M    'P1'
_symmetry_Int_Tables_number       1
loop_
_symmetry_equiv_pos_site_id
_symmetry_equiv_pos_as_xyz
1 x,y,z
_cell_length_a                   16.95253
_cell_length_b                   7.21872
_cell_length_c                   14.94643
_cell_angle_alpha                90.0
_cell_angle_beta                 116.24601
_cell_angle_gamma                90.0
loop_
_atom_site_label
_atom_site_type_symbol
_atom_site_fract_x
_atom_site_fract_y
_atom_site_fract_z
     1  I          0.26224670       0.43676215       0.27953870
     2  I          0.73775330       0.93676215       0.22046130
     3  I          0.73775330       0.56323785       0.72046130
     4  I          0.26224670       0.06323785       0.77953870
     5  F          0.16720700       0.56093160       0.41596900
     6  F          0.83279300       0.06093160       0.08403100
     7  F          0.83279300       0.43906840       0.58403100
     8  F          0.16720700       0.93906840       0.91596900
     9  F          0.22513800       0.57591180       0.61503900
    10  F          0.77486200       0.07591180       0.88496100
    11  F          0.77486200       0.42408820       0.38496100
    12  F          0.22513800       0.92408820       0.11503900
    13  F          0.39246900       0.47562000       0.73920800
    14  F          0.60753100       0.97562000       0.76079200
    15  F          0.60753100       0.52438000       0.26079200
    16  F          0.39246900       0.02438000       0.23920800
    17  F          0.50234700       0.35414190       0.66314900
    18  F          0.49765300       0.85414190       0.83685100
    19  F          0.49765300       0.64585810       0.33685100
    20  F          0.50234700       0.14585810       0.16314900
    21  F          0.44586700       0.33800170       0.46409800
    22  F          0.55413300       0.83800170       0.03590200
    23  F          0.55413300       0.66199830       0.53590200
    24  F          0.44586700       0.16199830       0.96409800
    25  C          0.30499110       0.44882000       0.43401120
    26  C          0.69500890       0.94882000       0.06598880
    27  C          0.69500890       0.55118000       0.56598880
    28  C          0.30499110       0.05118000       0.93401120
    29  C          0.25047110       0.50852000       0.47503130
    30  C          0.74952890       0.00852000       0.02496870
    31  C          0.74952890       0.49148000       0.52496870
    32  C          0.25047110      -0.00852000       0.97503130
    33  C          0.27903120       0.51753000       0.57704130
    34  C          0.72096880       0.01753000       0.92295870
    35  C          0.72096880       0.48247000       0.42295870
    36  C          0.27903120      -0.01753000       0.07704130
    37  C          0.36409120       0.46603000       0.64030130
    38  C          0.63590880       0.96603000       0.85969870
    39  C          0.63590880       0.53397000       0.35969870
    40  C          0.36409120       0.03397000       0.14030130
    41  C          0.41994110       0.40632000       0.60175130
    42  C          0.58005890       0.90632000       0.89824870
    43  C          0.58005890       0.59368000       0.39824870
    44  C          0.41994110       0.09368000       0.10175130
    45  C          0.39012110       0.39782000       0.49903130
    46  C          0.60987890       0.89782000       0.00096870
    47  C          0.60987890       0.60218000       0.50096870
    48  C          0.39012110       0.10218000      -0.00096870
    49  N          0.20531100       0.41582000       0.06611110
    50  N          0.79468900       0.91582000       0.43388890
    51  N          0.79468900       0.58418000       0.93388890
    52  N          0.20531100       0.08418000       0.56611110
    53  C          0.12217110       0.36262000       0.00424120
    54  C          0.87782890       0.86262000       0.49575880
    55  C          0.87782890       0.63738000      -0.00424120
    56  C          0.12217110       0.13738000       0.50424120
    57  C          0.08756110       0.37532000       0.89734880
    58  C          0.91243890       0.87532000       0.60265120
    59  C          0.91243890       0.62468000       0.10265120
    60  C          0.08756110       0.12468000       0.39734880
    61  C         -0.00143120       0.31873000       0.83718860
    62  C          0.00143120       0.81873000       0.66281140
    63  C          0.00143120       0.68127000       0.16281140
    64  C         -0.00143120       0.18127000       0.33718860
    65  H          0.97440000       0.32810000       0.76660000
    66  H          0.02560000       0.82810000       0.73340000
    67  H          0.02560000       0.67190000       0.23340000
    68  H          0.97440000       0.17190000       0.26660000
    69  C          0.94846880       0.25173000       0.87990850
    70  C          0.05153120       0.75173000       0.62009150
    71  C          0.05153120       0.74827000       0.12009150
    72  C          0.94846880       0.24827000       0.37990850
    73  H          0.88960000       0.21460000       0.83900000
    74  H          0.11040000       0.71460000       0.66100000
    75  H          0.11040000       0.78540000       0.16100000
    76  H          0.88960000       0.28540000       0.33900000
    77  C          0.98345880       0.23663000       0.98548850
    78  C          0.01654120       0.73663000       0.51451150
    79  C          0.01654120       0.76337000       0.01451150
    80  C          0.98345880       0.26337000       0.48548850
    81  H          0.94780000       0.18840000       0.01430000
    82  H          0.05220000       0.68840000       0.48570000
    83  H          0.05220000       0.81160000       0.98570000
    84  H          0.94780000       0.31160000       0.51430000
    85  C          0.06750120       0.29033000       0.04564140
    86  C          0.93249880       0.79033000       0.45435860
    87  C          0.93249880       0.70967000       0.95435860
    88  C          0.06750120       0.20967000       0.54564140
    89  H          0.08980000       0.27940000       0.11600000
    90  H          0.91020000       0.77940000       0.38400000
    91  H          0.91020000       0.72060000       0.88400000
    92  H          0.08980000       0.22060000       0.61600000
    93  C          0.25769110       0.47882000       0.02620120
    94  C          0.74230890       0.97882000       0.47379880
    95  C          0.74230890       0.52118000       0.97379880
    96  C          0.25769110       0.02118000       0.52620120
    97  C          0.22867110       0.49352000       0.92029880
    98  C          0.77132890      -0.00648000       0.57970120
    99  C          0.77132890       0.50648000       0.07970120
   100  C          0.22867110       0.00648000       0.42029880
   101  C          0.28864120       0.55512000       0.88377870
   102  C          0.71135880       0.05512000       0.61622130
   103  C          0.71135880       0.44488000       0.11622130
   104  C          0.28864120       0.94488000       0.38377870
   105  H          0.26970000       0.56440000       0.81390000
   106  H          0.73030000       0.06440000       0.68610000
   107  H          0.73030000       0.43560000       0.18610000
   108  H          0.26970000       0.93560000       0.31390000
   109  C          0.37300130       0.60123000       0.94778860
   110  C          0.62699870       0.10123000       0.55221140
   111  C          0.62699870       0.39877000       0.05221140
   112  C          0.37300130       0.89877000       0.44778860
   113  H          0.41250000       0.64150000       0.92240000
   114  H          0.58750000       0.14150000       0.57760000
   115  H          0.58750000       0.35850000       0.07760000
   116  H          0.41250000       0.85850000       0.42240000
   117  C          0.40179120       0.58882000       0.05277140
   118  C          0.59820880       0.08882000       0.44722860
   119  C          0.59820880       0.41118000       0.94722860
   120  C          0.40179120       0.91118000       0.55277140
   121  H          0.46050000       0.62180000       0.09690000
   122  H          0.53950000       0.12180000       0.40310000
   123  H          0.53950000       0.37820000       0.90310000
   124  H          0.46050000       0.87820000       0.59690000
   125  C          0.34626120       0.53032000       0.09099130
   126  C          0.65373880       0.03032000       0.40900870
   127  C          0.65373880       0.46968000       0.90900870
   128  C          0.34626120       0.96968000       0.59099130
   129  H          0.36670000       0.52380000       0.16120000
   130  H          0.63330000       0.02380000       0.33880000
   131  H          0.63330000       0.47620000       0.83880000
   132  H          0.36670000       0.97620000       0.66120000
   133  C          0.14202120       0.44172000       0.85784870
   134  C          0.85797880       0.94172000       0.64215130
   135  C          0.85797880       0.55828000       0.14215130
   136  C          0.14202120       0.05828000       0.35784870
   137  H          0.12040000       0.45220000       0.78760000
   138  H          0.87960000       0.95220000       0.71240000
   139  H          0.87960000       0.54780000       0.21240000
   140  H          0.12040000       0.04780000       0.28760000
