data_XOKROE
_symmetry_space_group_name_H-M    'P1'
_symmetry_Int_Tables_number       1
loop_
_symmetry_equiv_pos_site_id
_symmetry_equiv_pos_as_xyz
1 x,y,z
_cell_length_a                   21.33506
_cell_length_b                   9.31502
_cell_length_c                   14.49104
_cell_angle_alpha                90.0
_cell_angle_beta                 102.995019
_cell_angle_gamma                90.0
loop_
_atom_site_label
_atom_site_type_symbol
_atom_site_fract_x
_atom_site_fract_y
_atom_site_fract_z
     1  Br         0.45411000       0.71761000       0.37171000
     2  Br         0.54589000       0.21761000       0.12829000
     3  Br         0.54589000       0.28239000       0.62829000
     4  Br         0.45411000       0.78239000       0.87171000
     5  Br         0.05151000       0.21591000       0.11891000
     6  Br         0.94849000       0.71591000       0.38109000
     7  Br         0.94849000       0.78409000       0.88109000
     8  Br         0.05151000       0.28409000       0.61891000
     9  S          0.49571000       0.13901000       0.36051000
    10  S          0.50429000       0.63901000       0.13949000
    11  S          0.50429000       0.86099000       0.63949000
    12  S          0.49571000       0.36099000       0.86051000
    13  Cl         0.12261000       0.86889000       0.33961000
    14  Cl         0.87739000       0.36889000       0.16039000
    15  Cl         0.87739000       0.13111000       0.66039000
    16  Cl         0.12261000       0.63111000       0.83961000
    17  N          0.37391000       0.30183000       0.37372000
    18  N          0.62609000       0.80183000       0.12628000
    19  N          0.62609000       0.69817000       0.62628000
    20  N          0.37391000       0.19817000       0.87372000
    21  N          0.43261000       0.37343000       0.39012000
    22  N          0.56739000       0.87343000       0.10988000
    23  N          0.56739000       0.62657000       0.60988000
    24  N          0.43261000       0.12657000       0.89012000
    25  N          0.53331000       0.41213000       0.36532000
    26  N          0.46669000       0.91213000       0.13468000
    27  N          0.46669000       0.58787000       0.63468000
    28  N          0.53331000       0.08787000       0.86532000
    29  C          0.31031000       0.95097000       0.41002000
    30  C          0.68969000       0.45097000       0.08998000
    31  C          0.68969000       0.04903000       0.58998000
    32  C          0.31031000       0.54903000       0.91002000
    33  C          0.25171000       0.88257000       0.39882000
    34  C          0.74829000       0.38257000       0.10118000
    35  C          0.74829000       0.11743000       0.60118000
    36  C          0.25171000       0.61743000       0.89882000
    37  C          0.19721000       0.95017000       0.34782000
    38  C          0.80279000       0.45017000       0.15218000
    39  C          0.80279000       0.04983000       0.65218000
    40  C          0.19721000       0.54983000       0.84782000
    41  C          0.20011000       0.08123000       0.30492000
    42  C          0.79989000       0.58123000       0.19508000
    43  C          0.79989000       0.91877000       0.69508000
    44  C          0.20011000       0.41877000       0.80492000
    45  C          0.25901000       0.14983000       0.31722000
    46  C          0.74099000       0.64983000       0.18278000
    47  C          0.74099000       0.85017000       0.68278000
    48  C          0.25901000       0.35017000       0.81722000
    49  C          0.31481000       0.08633000       0.37132000
    50  C          0.68519000       0.58633000       0.12868000
    51  C          0.68519000       0.91367000       0.62868000
    52  C          0.31481000       0.41367000       0.87132000
    53  C          0.37611000       0.16603000       0.38962000
    54  C          0.62389000       0.66603000       0.11038000
    55  C          0.62389000       0.83397000       0.61038000
    56  C          0.37611000       0.33397000       0.88962000
    57  C          0.43861000       0.09223000       0.43002000
    58  C          0.56139000       0.59223000       0.06998000
    59  C          0.56139000       0.90777000       0.56998000
    60  C          0.43861000       0.40777000       0.93002000
    61  C          0.48731000       0.32183000       0.37322000
    62  C          0.51269000       0.82183000       0.12678000
    63  C          0.51269000       0.67817000       0.62678000
    64  C          0.48731000       0.17817000       0.87322000
    65  C          0.59871000       0.37174000       0.36102000
    66  C          0.40129000       0.87174000       0.13898000
    67  C          0.40129000       0.62826000       0.63898000
    68  C          0.59871000       0.12826000       0.86102000
    69  C          0.64732000       0.42584000       0.44292000
    70  C          0.35268000       0.92584000       0.05708000
    71  C          0.35268000       0.57416000       0.55708000
    72  C          0.64732000       0.07416000       0.94292000
    73  C          0.70082000       0.48844000       0.43553000
    74  C          0.29918000      -0.01156000       0.06447000
    75  C          0.29918000       0.51156000       0.56447000
    76  C          0.70082000       0.01156000       0.93553000
    77  H          0.33720000       0.34720000       0.35340000
    78  H          0.66280000       0.84720000       0.14660000
    79  H          0.66280000       0.65280000       0.64660000
    80  H          0.33720000       0.15280000       0.85340000
    81  H          0.52380000       0.50420000       0.36240000
    82  H          0.47620000       0.00420000       0.13760000
    83  H          0.47620000       0.49580000       0.63760000
    84  H          0.52380000      -0.00420000       0.86240000
    85  H          0.34810000       0.90510000       0.44450000
    86  H          0.65190000       0.40510000       0.05550000
    87  H          0.65190000       0.09490000       0.55550000
    88  H          0.34810000       0.59490000       0.94450000
    89  H          0.24890000       0.79060000       0.42580000
    90  H          0.75110000       0.29060000       0.07420000
    91  H          0.75110000       0.20940000       0.57420000
    92  H          0.24890000       0.70940000       0.92580000
    93  H          0.16240000       0.12380000       0.26760000
    94  H          0.83760000       0.62380000       0.23240000
    95  H          0.83760000       0.87620000       0.73240000
    96  H          0.16240000       0.37620000       0.76760000
    97  H          0.26150000       0.24080000       0.28870000
    98  H          0.73850000       0.74080000       0.21130000
    99  H          0.73850000       0.75920000       0.71130000
   100  H          0.26150000       0.25920000       0.78870000
   101  H          0.43210000      -0.01310000       0.42890000
   102  H          0.56790000       0.48690000       0.07110000
   103  H          0.56790000       0.01310000       0.57110000
   104  H          0.43210000       0.51310000       0.92890000
   105  H          0.45500000       0.12230000       0.49660000
   106  H          0.54500000       0.62230000       0.00340000
   107  H          0.54500000       0.87770000       0.50340000
   108  H          0.45500000       0.37770000      -0.00340000
   109  H          0.60820000       0.41020000       0.30200000
   110  H          0.39180000       0.91020000       0.19800000
   111  H          0.39180000       0.58980000       0.69800000
   112  H          0.60820000       0.08980000       0.80200000
   113  H          0.60170000       0.26570000       0.35880000
   114  H          0.39830000       0.76570000       0.14120000
   115  H          0.39830000       0.73430000       0.64120000
   116  H          0.60170000       0.23430000       0.85880000
   117  H          0.63920000       0.41450000       0.50430000
   118  H          0.36080000       0.91450000      -0.00430000
   119  H          0.36080000       0.58550000       0.49570000
   120  H          0.63920000       0.08550000       0.00430000
   121  H          0.71010000       0.50110000       0.37500000
   122  H          0.28990000       0.00110000       0.12500000
   123  H          0.28990000       0.49890000       0.62500000
   124  H          0.71010000      -0.00110000       0.87500000
   125  H          0.73030000       0.52110000       0.49070000
   126  H          0.26970000       0.02110000       0.00930000
   127  H          0.26970000       0.47890000       0.50930000
   128  H          0.73030000       0.97890000      -0.00930000
   129  S          0.01921000       0.63359000       0.13151000
   130  S          0.98079000       0.13359000       0.36849000
   131  S          0.98079000       0.36641000       0.86849000
   132  S          0.01921000       0.86641000       0.63151000
   133  Cl         0.38581000       0.34189000       0.14851000
   134  Cl         0.61419000       0.84189000       0.35149000
   135  Cl         0.61419000       0.65811000       0.85149000
   136  Cl         0.38581000       0.15811000       0.64851000
   137  N          0.14051000       0.79707000       0.11452000
   138  N          0.85949000       0.29707000       0.38548000
   139  N          0.85949000       0.20293000       0.88548000
   140  N          0.14051000       0.70293000       0.61452000
   141  N          0.08181000       0.86927000       0.10092000
   142  N          0.91819000       0.36927000       0.39908000
   143  N          0.91819000       0.13073000       0.89908000
   144  N          0.08181000       0.63073000       0.60092000
   145  N          0.98159000       0.90327000       0.13102000
   146  N          0.01841000       0.40327000       0.36898000
   147  N          0.01841000       0.09673000       0.86898000
   148  N          0.98159000       0.59673000       0.63102000
   149  C          0.20071000       0.44617000       0.07142000
   150  C          0.79929000       0.94617000       0.42858000
   151  C          0.79929000       0.55383000       0.92858000
   152  C          0.20071000       0.05383000       0.57142000
   153  C          0.25801000       0.37187000       0.08282000
   154  C          0.74199000       0.87187000       0.41718000
   155  C          0.74199000       0.62813000       0.91718000
   156  C          0.25801000       0.12813000       0.58282000
   157  C          0.31321000       0.43167000       0.13812000
   158  C          0.68679000       0.93167000       0.36188000
   159  C          0.68679000       0.56833000       0.86188000
   160  C          0.31321000       0.06833000       0.63812000
   161  C          0.31191000       0.56207000       0.18222000
   162  C          0.68809000       0.06207000       0.31778000
   163  C          0.68809000       0.43793000       0.81778000
   164  C          0.31191000       0.93793000       0.68222000
   165  C          0.25491000       0.63707000       0.16912000
   166  C          0.74509000       0.13707000       0.33088000
   167  C          0.74509000       0.36293000       0.83088000
   168  C          0.25491000       0.86293000       0.66912000
   169  C          0.19801000       0.58057000       0.11242000
   170  C          0.80199000       0.08057000       0.38758000
   171  C          0.80199000       0.41943000       0.88758000
   172  C          0.19801000       0.91943000       0.61242000
   173  C          0.13731000       0.66157000       0.09682000
   174  C          0.86269000       0.16157000       0.40318000
   175  C          0.86269000       0.33843000       0.90318000
   176  C          0.13731000       0.83843000       0.59682000
   177  C          0.07471000       0.58807000       0.05852000
   178  C          0.92529000       0.08807000       0.44148000
   179  C          0.92529000       0.41193000       0.94148000
   180  C          0.07471000       0.91193000       0.55852000
   181  C          0.02721000       0.81597000       0.11972000
   182  C          0.97279000       0.31597000       0.38028000
   183  C          0.97279000       0.18403000       0.88028000
   184  C          0.02721000       0.68403000       0.61972000
   185  C          0.91689000       0.85277000       0.13262000
   186  C          0.08311000       0.35277000       0.36738000
   187  C          0.08311000       0.14723000       0.86738000
   188  C          0.91689000       0.64723000       0.63262000
   189  C          0.87068000       0.97316000       0.11862000
   190  C          0.12932000       0.47316000       0.38138000
   191  C          0.12932000       0.02684000       0.88138000
   192  C          0.87068000       0.52684000       0.61862000
   193  C          0.83088000      -0.00704000       0.17423000
   194  C          0.16912000       0.49296000       0.32577000
   195  C          0.16912000       0.00704000       0.82577000
   196  C          0.83088000       0.50704000       0.67423000
   197  H          0.08030000       0.95710000       0.07810000
   198  H          0.91970000       0.45710000       0.42190000
   199  H          0.91970000       0.04290000       0.92190000
   200  H          0.08030000       0.54290000       0.57810000
   201  H          0.99010000      -0.00430000       0.13790000
   202  H          0.00990000       0.49570000       0.36210000
   203  H          0.00990000       0.00430000       0.86210000
   204  H          0.99010000       0.50430000       0.63790000
   205  H          0.16230000       0.40480000       0.03500000
   206  H          0.83770000       0.90480000       0.46500000
   207  H          0.83770000       0.59520000       0.96500000
   208  H          0.16230000       0.09520000       0.53500000
   209  H          0.25940000       0.28140000       0.05320000
   210  H          0.74060000       0.78140000       0.44680000
   211  H          0.74060000       0.71860000       0.94680000
   212  H          0.25940000       0.21860000       0.55320000
   213  H          0.35000000       0.60010000       0.22150000
   214  H          0.65000000       0.10010000       0.27850000
   215  H          0.65000000       0.39990000       0.77850000
   216  H          0.35000000       0.89990000       0.72150000
   217  H          0.25410000       0.72790000       0.19870000
   218  H          0.74590000       0.22790000       0.30130000
   219  H          0.74590000       0.27210000       0.80130000
   220  H          0.25410000       0.77210000       0.69870000
   221  H          0.08120000       0.48290000       0.05870000
   222  H          0.91880000       0.98290000       0.44130000
   223  H          0.91880000       0.51710000       0.94130000
   224  H          0.08120000       0.01710000       0.55870000
   225  H          0.05700000       0.61910000      -0.00750000
   226  H          0.94300000       0.11910000       0.50750000
   227  H          0.94300000       0.38090000       0.00750000
   228  H          0.05700000       0.88090000       0.49250000
   229  H          0.91760000       0.80580000       0.19410000
   230  H          0.08240000       0.30580000       0.30590000
   231  H          0.08240000       0.19420000       0.80590000
   232  H          0.91760000       0.69420000       0.69410000
   233  H          0.90290000       0.78070000       0.08190000
   234  H          0.09710000       0.28070000       0.41810000
   235  H          0.09710000       0.21930000       0.91810000
   236  H          0.90290000       0.71930000       0.58190000
   237  H          0.86980000       0.03810000       0.06780000
   238  H          0.13020000       0.53810000       0.43220000
   239  H          0.13020000       0.96190000       0.93220000
   240  H          0.86980000       0.46190000       0.56780000
   241  H          0.83110000       0.92890000       0.22530000
   242  H          0.16890000       0.42890000       0.27470000
   243  H          0.16890000       0.07110000       0.77470000
   244  H          0.83110000       0.57110000       0.72530000
   245  H          0.80170000       0.07140000       0.16340000
   246  H          0.19830000       0.57140000       0.33660000
   247  H          0.19830000       0.92860000       0.83660000
   248  H          0.80170000       0.42860000       0.66340000
