data_XOLJAL
_symmetry_space_group_name_H-M    'P1'
_symmetry_Int_Tables_number       1
loop_
_symmetry_equiv_pos_site_id
_symmetry_equiv_pos_as_xyz
1 x,y,z
_cell_length_a                   8.495817
_cell_length_b                   10.0322
_cell_length_c                   26.3245
_cell_angle_alpha                90.0
_cell_angle_beta                 94.463
_cell_angle_gamma                90.0
loop_
_atom_site_label
_atom_site_type_symbol
_atom_site_fract_x
_atom_site_fract_y
_atom_site_fract_z
     1  Cl         0.04311600       0.33234500       0.19731815
     2  Cl         0.95688400       0.83234500       0.30268185
     3  Cl         0.95688400       0.66765500       0.80268185
     4  Cl         0.04311600       0.16765500       0.69731815
     5  O          0.37234120       0.48258100       0.42948400
     6  O          0.62765880       0.98258100       0.07051600
     7  O          0.62765880       0.51741900       0.57051600
     8  O          0.37234120       0.01741900       0.92948400
     9  F          0.77855120       0.13219100       0.89633300
    10  F          0.22144880       0.63219100       0.60366700
    11  F          0.22144880       0.86780900       0.10366700
    12  F          0.77855120       0.36780900       0.39633300
    13  C          0.27743150       0.36600120       0.42029500
    14  C          0.72256850       0.86600120       0.07970500
    15  C          0.72256850       0.63399880       0.57970500
    16  C          0.27743150       0.13399880       0.92029500
    17  N          0.29939130       0.26604110       0.52647400
    18  N          0.70060870       0.76604110       0.97352600
    19  N          0.70060870       0.73395890       0.47352600
    20  N          0.29939130       0.23395890       0.02647400
    21  C          0.34993160       0.28304130       0.58216500
    22  C          0.65006840       0.78304130       0.91783500
    23  C          0.65006840       0.71695870       0.41783500
    24  C          0.34993160       0.21695870       0.08216500
    25  H          0.25540000       0.30250000       0.60060000
    26  H          0.74460000       0.80250000       0.89940000
    27  H          0.74460000       0.69750000       0.39940000
    28  H          0.25540000       0.19750000       0.10060000
    29  H          0.42100000       0.36120000       0.58620000
    30  H          0.57900000       0.86120000       0.91380000
    31  H          0.57900000       0.63880000       0.41380000
    32  H          0.42100000       0.13880000       0.08620000
    33  C          0.21982150       0.35534130       0.36387500
    34  C          0.78017850       0.85534130       0.13612500
    35  C          0.78017850       0.64465870       0.63612500
    36  C          0.21982150       0.14465870       0.86387500
    37  O          0.59503160       0.97848890       0.66834400
    38  O          0.40496840       0.47848890       0.83165600
    39  O          0.40496840       0.02151110       0.33165600
    40  O          0.59503160       0.52151110       0.16834400
    41  C          0.19153160       0.37911130       0.50998500
    42  C          0.80846840       0.87911130       0.99001500
    43  C          0.80846840       0.62088870       0.49001500
    44  C          0.19153160       0.12088870       0.00998500
    45  H          0.24750000       0.46470000       0.51650000
    46  H          0.75250000       0.96470000       0.98350000
    47  H          0.75250000       0.53530000       0.48350000
    48  H          0.24750000       0.03530000       0.01650000
    49  H          0.09840000       0.37810000       0.53030000
    50  H          0.90160000       0.87810000       0.96970000
    51  H          0.90160000       0.62190000       0.46970000
    52  H          0.09840000       0.12190000       0.03030000
    53  C          0.77523170       0.01307150       0.81938600
    54  C          0.22476830       0.51307150       0.68061400
    55  C          0.22476830      -0.01307150       0.18061400
    56  C          0.77523170       0.48692850       0.31938600
    57  H          0.84020000       0.94600000       0.83560000
    58  H          0.15980000       0.44600000       0.66440000
    59  H          0.15980000       0.05400000       0.16440000
    60  H          0.84020000       0.55400000       0.33560000
    61  C          0.11030190       0.34071160       0.26167600
    62  C          0.88969810       0.84071160       0.23832400
    63  C          0.88969810       0.65928840       0.73832400
    64  C          0.11030190       0.15928840       0.76167600
    65  C          0.13712150       0.36935130       0.45385500
    66  C          0.86287850       0.86935130       0.04614500
    67  C          0.86287850       0.63064870       0.54614500
    68  C          0.13712150       0.13064870       0.95385500
    69  H          0.06920000       0.44680000       0.44410000
    70  H          0.93080000       0.94680000       0.05590000
    71  H          0.93080000       0.55320000       0.55590000
    72  H          0.06920000       0.05320000       0.94410000
    73  H          0.07330000       0.28750000       0.44790000
    74  H          0.92670000       0.78750000       0.05210000
    75  H          0.92670000       0.71250000       0.55210000
    76  H          0.07330000       0.21250000       0.94790000
    77  C          0.57217170       0.08330140       0.68971500
    78  C          0.42782830       0.58330140       0.81028500
    79  C          0.42782830       0.91669860       0.31028500
    80  C          0.57217170       0.41669860       0.18971500
    81  C          0.43793150       0.25810130       0.49410500
    82  C          0.56206850       0.75810130       0.00589500
    83  C          0.56206850       0.74189870       0.50589500
    84  C          0.43793150       0.24189870       0.99410500
    85  H          0.50270000       0.17900000       0.50420000
    86  H          0.49730000       0.67900000      -0.00420000
    87  H          0.49730000       0.82100000       0.49580000
    88  H          0.50270000       0.32100000       0.00420000
    89  H          0.50480000       0.33830000       0.50000000
    90  H          0.49520000       0.83830000       0.00000000
    91  H          0.49520000       0.66170000       0.50000000
    92  H          0.50480000       0.16170000      -0.00000000
    93  C          0.38311160       0.24842130       0.43767500
    94  C          0.61688840       0.74842130       0.06232500
    95  C          0.61688840       0.75157870       0.56232500
    96  C          0.38311160       0.25157870       0.93767500
    97  H          0.32410000       0.16420000       0.43140000
    98  H          0.67590000       0.66420000       0.06860000
    99  H          0.67590000       0.83580000       0.56860000
   100  H          0.32410000       0.33580000       0.93140000
   101  H          0.47640000       0.24640000       0.41740000
   102  H          0.52360000       0.74640000       0.08260000
   103  H          0.52360000       0.75360000       0.58260000
   104  H          0.47640000       0.25360000       0.91740000
   105  C          0.62839160       0.10254130       0.74446500
   106  C          0.37160840       0.60254130       0.75553500
   107  C          0.37160840       0.89745870       0.25553500
   108  C          0.62839160       0.39745870       0.24446500
   109  C          0.64133180       0.22601150       0.82391500
   110  C          0.35866820       0.72601150       0.67608500
   111  C          0.35866820       0.77398850       0.17608500
   112  C          0.64133180       0.27398850       0.32391500
   113  H          0.61520000       0.30180000       0.84320000
   114  H          0.38480000       0.80180000       0.65680000
   115  H          0.38480000       0.69820000       0.15680000
   116  H          0.61520000       0.19820000       0.34320000
   117  C          0.72221170       0.00267140       0.76842600
   118  C          0.27778830       0.50267140       0.73157400
   119  C          0.27778830      -0.00267140       0.23157400
   120  C          0.72221170       0.49732860       0.26842600
   121  H          0.74990000       0.92670000       0.74950000
   122  H          0.25010000       0.42670000       0.75050000
   123  H          0.25010000       0.07330000       0.25050000
   124  H          0.74990000       0.57330000       0.24950000
   125  C          0.43389180       0.16299140       0.60664500
   126  C          0.56610820       0.66299140       0.89335500
   127  C          0.56610820       0.83700860       0.39335500
   128  C          0.43389180       0.33700860       0.10664500
   129  H          0.52700000       0.14020000       0.58800000
   130  H          0.47300000       0.64020000       0.91200000
   131  H          0.47300000       0.85980000       0.41200000
   132  H          0.52700000       0.35980000       0.08800000
   133  H          0.36190000       0.08530000       0.60520000
   134  H          0.63810000       0.58530000       0.89480000
   135  H          0.63810000       0.91470000       0.39480000
   136  H          0.36190000       0.41470000       0.10520000
   137  C          0.59043170       0.21471140       0.77255500
   138  C          0.40956830       0.71471140       0.72744500
   139  C          0.40956830       0.78528860       0.22744500
   140  C          0.59043170       0.28528860       0.27255500
   141  H          0.52910000       0.28410000       0.75640000
   142  H          0.47090000       0.78410000       0.74360000
   143  H          0.47090000       0.71590000       0.24360000
   144  H          0.52910000       0.21590000       0.25640000
   145  C          0.11611170       0.25426140       0.34655600
   146  C          0.88388830       0.75426140       0.15344400
   147  C          0.88388830       0.74573860       0.65344400
   148  C          0.11611170       0.24573860       0.84655600
   149  H          0.08280000       0.18980000       0.36990000
   150  H          0.91720000       0.68980000       0.13010000
   151  H          0.91720000       0.81020000       0.63010000
   152  H          0.08280000       0.31020000       0.86990000
   153  C          0.21332000       0.44090160       0.27751600
   154  C          0.78668000       0.94090160       0.22248400
   155  C          0.78668000       0.55909840       0.72248400
   156  C          0.21332000       0.05909840       0.77751600
   157  H          0.24670000       0.50460000       0.25390000
   158  H          0.75330000       0.00460000       0.24610000
   159  H          0.75330000       0.49540000       0.74610000
   160  H          0.24670000      -0.00460000       0.75390000
   161  C          0.26793190       0.44743150       0.32873600
   162  C          0.73206810       0.94743150       0.17126400
   163  C          0.73206810       0.55256850       0.67126400
   164  C          0.26793190       0.05256850       0.82873600
   165  H          0.33940000       0.51610000       0.33990000
   166  H          0.66060000       0.01610000       0.16010000
   167  H          0.66060000       0.48390000       0.66010000
   168  H          0.33940000       0.98390000       0.83990000
   169  C          0.73088170       0.12357150       0.84587500
   170  C          0.26911830       0.62357150       0.65412500
   171  C          0.26911830       0.87642850       0.15412500
   172  C          0.73088170       0.37642850       0.34587500
   173  C          0.48584190       0.19591140       0.66180500
   174  C          0.51415810       0.69591140       0.83819500
   175  C          0.51415810       0.80408860       0.33819500
   176  C          0.48584190       0.30408860       0.16180500
   177  H          0.55550000       0.27510000       0.66260000
   178  H          0.44450000       0.77510000       0.83740000
   179  H          0.44450000       0.72490000       0.33740000
   180  H          0.55550000       0.22490000       0.16260000
   181  H          0.39160000       0.21920000       0.67980000
   182  H          0.60840000       0.71920000       0.82020000
   183  H          0.60840000       0.78080000       0.32020000
   184  H          0.39160000       0.28080000       0.17980000
   185  C          0.06098180       0.24691160       0.29540600
   186  C          0.93901820       0.74691160       0.20459400
   187  C          0.93901820       0.75308840       0.70459400
   188  C          0.06098180       0.25308840       0.79540600
   189  H         -0.00980000       0.17810000       0.28380000
   190  H          0.00980000       0.67810000       0.21620000
   191  H          0.00980000       0.82190000       0.71620000
   192  H         -0.00980000       0.32190000       0.78380000
   193  H          0.25220000       0.18211900       0.52277000
   194  H          0.74780000       0.68211900       0.97723000
   195  H          0.74780000       0.81788100       0.47723000
   196  H          0.25220000       0.31788100       0.02277000
   197  H          0.31030000       0.55420000       0.42519000
   198  H          0.68970000       0.05420000       0.07481000
   199  H          0.68970000       0.44580000       0.57481000
   200  H          0.31030000       0.94580000       0.92519000
   201  O          0.00991130       0.33901110       0.07049400
   202  O         -0.00991130       0.83901110       0.42950600
   203  O         -0.00991130       0.66098890       0.92950600
   204  O          0.00991130       0.16098890       0.57049400
   205  C          0.86992000       0.31546160       0.08266600
   206  C          0.13008000       0.81546160       0.41733400
   207  C          0.13008000       0.68453840       0.91733400
   208  C          0.86992000       0.18453840       0.58266600
   209  H          0.81140000       0.38830000       0.09450000
   210  H          0.18860000       0.88830000       0.40550000
   211  H          0.18860000       0.61170000       0.90550000
   212  H          0.81140000       0.11170000       0.59450000
   213  O          0.80582000       0.20718150       0.08021700
   214  O          0.19418000       0.70718150       0.41978300
   215  O          0.19418000       0.79281850       0.91978300
   216  O          0.80582000       0.29281850       0.58021700
   217  O          0.25335130       0.50866100       0.01066400
   218  O          0.74664870       0.00866100       0.48933600
   219  O          0.74664870       0.49133900       0.98933600
   220  O          0.25335130      -0.00866100       0.51066400
   221  O          0.08486140       0.57386110       0.06740500
   222  O          0.91513860       0.07386110       0.43259500
   223  O          0.91513860       0.42613890       0.93259500
   224  O          0.08486140       0.92613890       0.56740500
   225  C          0.18626170       0.59369140       0.03449600
   226  C          0.81373830       0.09369140       0.46550400
   227  C          0.81373830       0.40630860       0.96550400
   228  C          0.18626170       0.90630860       0.53449600
   229  H          0.21200000       0.68390000       0.02790000
   230  H          0.78800000       0.18390000       0.47210000
   231  H          0.78800000       0.31610000       0.97210000
   232  H          0.21200000       0.81610000       0.52790000
   233  H          0.05540000       0.47330000       0.07031200
   234  H          0.94460000       0.97330000       0.42968800
   235  H          0.94460000       0.52670000       0.92968800
   236  H          0.05540000       0.02670000       0.57031200
