data_XOMYUW
_symmetry_space_group_name_H-M    'P1'
_symmetry_Int_Tables_number       1
loop_
_symmetry_equiv_pos_site_id
_symmetry_equiv_pos_as_xyz
1 x,y,z
_cell_length_a                   9.400814
_cell_length_b                   10.911216
_cell_length_c                   11.838218
_cell_angle_alpha                105.3665
_cell_angle_beta                 97.5096
_cell_angle_gamma                110.2555
loop_
_atom_site_label
_atom_site_type_symbol
_atom_site_fract_x
_atom_site_fract_y
_atom_site_fract_z
     1  C          0.02753000       0.88563000       0.24742000
     2  C          0.97247000       0.11437000       0.75258000
     3  H          0.09036500      -0.01387500       0.28772600
     4  H          0.90963500       0.01387500       0.71227400
     5  H          0.93633700       0.85989800       0.28290800
     6  H          0.06366300       0.14010200       0.71709200
     7  C          0.25963000       0.83123000       0.21102000
     8  C          0.74037000       0.16877000       0.78898000
     9  H          0.32173800       0.77997800       0.23253000
    10  H          0.67826200       0.22002200       0.76747000
    11  H          0.21394000       0.79040600       0.12263100
    12  H          0.78606000       0.20959400       0.87736900
    13  C          0.15414000       0.84323000       0.61003000
    14  C          0.84586000       0.15677000       0.38997000
    15  H          0.19656300       0.77196800       0.60327700
    16  H          0.80343700       0.22803200       0.39672300
    17  H          0.07725700       0.83017500       0.65900400
    18  H          0.92274300       0.16982500       0.34099600
    19  H          0.23917800       0.93511300       0.64854400
    20  H          0.76082200       0.06488700       0.35145600
    21  C          0.07573000       0.83143000       0.48513000
    22  C          0.92427000       0.16857000       0.51487000
    23  H          0.02721100       0.89959800       0.49205500
    24  H          0.97278900       0.10040200       0.50794500
    25  H         -0.00805100       0.73756400       0.44501800
    26  H          0.00805100       0.26243600       0.55498200
    27  C          0.19513000       0.85803000       0.40912000
    28  C          0.80487000       0.14197000       0.59088000
    29  H          0.25861400       0.95894000       0.43579300
    30  H          0.74138600       0.04106000       0.56420700
    31  H          0.26647900       0.81257800       0.42529000
    32  H          0.73352100       0.18742200       0.57471000
    33  C          0.86406000       0.93643000       0.09643000
    34  C          0.13594000       0.06357000       0.90357000
    35  H          0.82374300       0.91552300       0.00989800
    36  H          0.17625700       0.08447700      -0.00989800
    37  H          0.92519500       0.03627600       0.13481000
    38  H          0.07480500       0.96372400       0.86519000
    39  H          0.77645500       0.90707000       0.13352100
    40  H          0.22354500       0.09293000       0.86647900
    41  C          0.96857000       0.85863000       0.11383000
    42  C          0.03143000       0.14137000       0.88617000
    43  H          0.90861000       0.75801500       0.07159900
    44  H          0.09139000       0.24198500       0.92840100
    45  H          0.05865800       0.88971800       0.07807300
    46  H          0.94134200       0.11028200       0.92192700
    47  C          0.36963000       0.98053000       0.23963000
    48  C          0.63037000       0.01947000       0.76037000
    49  H          0.43813500       0.01611900       0.32206600
    50  H          0.56186500      -0.01611900       0.67793400
    51  H          0.30890500       0.03823100       0.23624000
    52  H          0.69109500       0.96176900       0.76376000
    53  C          0.46853000      -0.01197000       0.14733000
    54  C          0.53147000       0.01197000       0.85267000
    55  H          0.40049000       0.95853500       0.06654200
    56  H          0.59951000       0.04146500       0.93345800
    57  H          0.52396000       0.92688900       0.14815100
    58  H          0.47604000       0.07311100       0.85184900
    59  H          0.54454000       0.08352100       0.16778600
    60  H          0.45546000       0.91647900       0.83221400
    61  C          0.02413000       0.65213000       0.22722000
    62  C         -0.02413000       0.34787000       0.77278000
    63  H          0.92233200       0.63828000       0.24802200
    64  H          0.07766800       0.36172000       0.75197800
    65  H          0.00328200       0.61943000       0.13790700
    66  H         -0.00328200       0.38057000       0.86209300
    67  C         -0.01564000       0.41013000       0.20743000
    68  C          0.01564000       0.58987000       0.79257000
    69  H         -0.02329100       0.38950600       0.12048100
    70  H          0.02329100       0.61049400       0.87951900
    71  H          0.88003000       0.39182100       0.22215400
    72  H          0.11997000       0.60817900       0.77784600
    73  H          0.02794700       0.35132900       0.23649800
    74  H          0.97205300       0.64867100       0.76350200
    75  C          0.09083000       0.56203000       0.27423000
    76  C          0.90917000       0.43797000       0.72577000
    77  H          0.09832300       0.58367000       0.36196100
    78  H          0.90167700       0.41633000       0.63803900
    79  H          0.19713400       0.58060500       0.26125900
    80  H          0.80286600       0.41939500       0.73874100
    81  N          0.12612000       0.80742000       0.27427190
    82  N          0.87388000       0.19258000       0.72572810
    83  C          0.53334000       0.39983000       0.04023000
    84  C          0.46666000       0.60017000       0.95977000
    85  O          0.24202000       0.53752000       0.03490190
    86  O          0.75798000       0.46248000       0.96509810
    87  F          0.32392000       0.36512180       0.13116170
    88  F          0.67608000       0.63487820       0.86883830
    89  C          0.41223000       0.42753000       0.06763000
    90  C          0.58777000       0.57247000       0.93237000
    91  C          0.36373000       0.52543000       0.02442000
    92  C          0.63627000       0.47457000       0.97558000
    93  F          0.57572000       0.30999190       0.07789190
    94  F          0.42428000       0.69000810       0.92210810
    95  F          0.20342000       0.47070190       0.51412190
    96  F          0.79658000       0.52929810       0.48587810
    97  O          0.25582000       0.27482000       0.34802000
    98  O          0.74418000       0.72518000       0.65198000
    99  C          0.36943000       0.37723000       0.42003000
   100  C          0.63057000       0.62277000       0.57997000
   101  C          0.34683000       0.48713000       0.50983000
   102  C          0.65317000       0.51287000       0.49017000
   103  F          0.44912000       0.70002000       0.66482000
   104  F          0.55088000       0.29998000       0.33518000
   105  C          0.47154000       0.60193000       0.58343000
   106  C          0.52846000       0.39807000       0.41657000
   107  I          0.60644200       0.73293200       0.32303200
   108  I          0.39355800       0.26706800       0.67696800
