data_XONBEJ
_symmetry_space_group_name_H-M    'P1'
_symmetry_Int_Tables_number       1
loop_
_symmetry_equiv_pos_site_id
_symmetry_equiv_pos_as_xyz
1 x,y,z
_cell_length_a                   7.641701
_cell_length_b                   8.89842
_cell_length_c                   12.18822
_cell_angle_alpha                73.56901
_cell_angle_beta                 87.20001
_cell_angle_gamma                86.59801
loop_
_atom_site_label
_atom_site_type_symbol
_atom_site_fract_x
_atom_site_fract_y
_atom_site_fract_z
     1  Cl         0.75923100       0.17050100       0.53681600
     2  Cl         0.24076900       0.82949900       0.46318400
     3  S          0.56779800       0.42576700       0.36735500
     4  S          0.43220200       0.57423300       0.63264500
     5  O          0.35782000       0.65316190       0.21055140
     6  O          0.64218000       0.34683810       0.78944860
     7  O          0.09183000       0.56442000       0.27082180
     8  O          0.90817000       0.43558000       0.72917820
     9  C          0.24924000       0.55803000       0.27772000
    10  C          0.75076000       0.44197000       0.72228000
    11  C          0.34363000       0.43363000       0.36537180
    12  C          0.65637000       0.56637000       0.63462820
    13  C          0.27553000       0.31293000       0.44752000
    14  C          0.72447000       0.68707000       0.55248000
    15  H          0.15580000       0.29810000       0.45920000
    16  H          0.84420000       0.70190000       0.54080000
    17  C          0.40414000       0.21183000       0.51342000
    18  C          0.59586000       0.78817000       0.48658000
    19  H          0.37980000       0.12330000       0.57320000
    20  H          0.62020000       0.87670000       0.42680000
    21  C          0.56653000       0.25943000       0.47896190
    22  C          0.43347000       0.74057000       0.52103810
    23  H          0.31330000       0.72620000       0.15471600
    24  H          0.68670000       0.27380000       0.84528400
    25  N          0.25772000       0.89353190       0.04855140
    26  N          0.74228000       0.10646810       0.95144860
    27  C          0.14423000       0.73993000       0.93838000
    28  C          0.85577000       0.26007000       0.06162000
    29  H          0.16180000       0.64910000      -0.00190000
    30  H          0.83820000       0.35090000       0.00190000
    31  C          0.07653000       0.73194000       0.83927000
    32  C          0.92347000       0.26806000       0.16073000
    33  H          0.04820000       0.63520000       0.83180000
    34  H          0.95180000       0.36480000       0.16820000
    35  C          0.04873000       0.86835000       0.74768000
    36  C          0.95127000       0.13165000       0.25232000
    37  H          0.00380000       0.86010000       0.68010000
    38  H         -0.00380000       0.13990000       0.31990000
    39  C          0.08633000       0.00984000       0.75678000
    40  C          0.91367000      -0.00984000       0.24322000
    41  H          0.06490000       0.09860000       0.69610000
    42  H          0.93510000       0.90140000       0.30390000
    43  C          0.20343000       0.16713000       0.87229810
    44  C          0.79657000       0.83287000       0.12770190
    45  H          0.18450000       0.25850000       0.81330000
    46  H          0.81550000       0.74150000       0.18670000
    47  C          0.32503000       0.31733000      -0.00782000
    48  C          0.67497000       0.68267000       0.00782000
    49  H          0.30940000       0.41160000       0.93550000
    50  H          0.69060000       0.58840000       0.06450000
    51  C          0.39393000       0.31653000       0.09223000
    52  C          0.60607000       0.68347000       0.90777000
    53  H          0.42380000       0.41030000       0.10420000
    54  H          0.57620000       0.58970000       0.89580000
    55  C          0.42083000       0.17523000       0.17832000
    56  C          0.57917000       0.82477000       0.82168000
    57  H          0.46980000       0.17650000       0.24630000
    58  H          0.53020000       0.82350000       0.75370000
    59  C          0.37673000       0.03663000       0.16383190
    60  C          0.62327000       0.96337000       0.83616810
    61  H          0.39560000       0.94410000       0.22180000
    62  H          0.60440000       0.05590000       0.77820000
    63  C          0.18803000       0.88722000       0.95081830
    64  C          0.81197000       0.11278000       0.04918170
    65  C          0.15883000       0.02533000       0.85846820
    66  C          0.84117000       0.97467000       0.14153180
    67  C          0.30203000       0.03262000       0.06078170
    68  C          0.69797000       0.96738000       0.93921830
    69  C          0.27573000       0.17552000       0.97219820
    70  C          0.72427000       0.82448000       0.02780180
