data_XONBUZ
_symmetry_space_group_name_H-M    'P1'
_symmetry_Int_Tables_number       1
loop_
_symmetry_equiv_pos_site_id
_symmetry_equiv_pos_as_xyz
1 x,y,z
_cell_length_a                   24.93904
_cell_length_b                   4.721301
_cell_length_c                   10.46262
_cell_angle_alpha                90.0
_cell_angle_beta                 93.9802
_cell_angle_gamma                90.0
loop_
_atom_site_label
_atom_site_type_symbol
_atom_site_fract_x
_atom_site_fract_y
_atom_site_fract_z
     1  S          0.36385200       0.04316150       0.78096500
     2  S          0.63614800       0.04316150       0.21903500
     3  S          0.86385200       0.54316150       0.78096500
     4  S          0.13614800       0.54316150       0.21903500
     5  Cl         0.29677400       0.42036180       0.93304600
     6  Cl         0.70322600       0.42036180       0.06695400
     7  Cl         0.79677400       0.92036180       0.93304600
     8  Cl         0.20322600       0.92036180       0.06695400
     9  C          0.28197800       0.91456000       0.63541190
    10  C          0.71802200       0.91456000       0.36458810
    11  C          0.78197800       0.41456000       0.63541190
    12  C          0.21802200       0.41456000       0.36458810
    13  H          0.25990000       0.83450000       0.56980000
    14  H          0.74010000       0.83450000       0.43020000
    15  H          0.75990000       0.33450000       0.56980000
    16  H          0.24010000       0.33450000       0.43020000
    17  C          0.36831700       0.66965000       0.57793190
    18  C          0.63168300       0.66965000       0.42206810
    19  C          0.86831700       0.16965000       0.57793190
    20  C          0.13168300       0.16965000       0.42206810
    21  C          0.33513800       0.85775000       0.65220180
    22  C          0.66486200       0.85775000       0.34779820
    23  C          0.83513800       0.35775000       0.65220180
    24  C          0.16486200       0.35775000       0.34779820
    25  C          0.30304100       0.18855000       0.80842000
    26  C          0.69695900       0.18855000       0.19158000
    27  C          0.80304100       0.68855000       0.80842000
    28  C          0.19695900       0.68855000       0.19158000
    29  C          0.26297900       0.10296000       0.72442000
    30  C          0.73702100       0.10296000       0.27558000
    31  C          0.76297900       0.60296000       0.72442000
    32  C          0.23702100       0.60296000       0.27558000
    33  H          0.22740000       0.16150000       0.72570000
    34  H          0.77260000       0.16150000       0.27430000
    35  H          0.72740000       0.66150000       0.72570000
    36  H          0.27260000       0.66150000       0.27430000
    37  O          0.34071600       0.54975000       0.48304150
    38  O          0.65928400       0.54975000       0.51695850
    39  O          0.84071600       0.04975000       0.48304150
    40  O          0.15928400       0.04975000       0.51695850
    41  O          0.41578600       0.63235000       0.60561170
    42  O          0.58421400       0.63235000       0.39438830
    43  O          0.91578600       0.13235000       0.60561170
    44  O          0.08421400       0.13235000       0.39438830
    45  H          0.36181300       0.42010000       0.43830000
    46  H          0.63818700       0.42010000       0.56170000
    47  H          0.86181300       0.92010000       0.43830000
    48  H          0.13818700       0.92010000       0.56170000
    49  N          0.39040700       0.20155000       0.34305170
    50  N          0.60959300       0.20155000       0.65694830
    51  N          0.89040700       0.70155000       0.34305170
    52  N          0.10959300       0.70155000       0.65694830
    53  C          0.50000000       0.82143000       0.00000000
    54  C         -0.00000000       0.32143000       0.00000000
    55  H          0.52620000       0.94270000       0.04600000
    56  H          0.47380000       0.94270000       0.95400000
    57  H          0.02620000       0.44270000       0.04600000
    58  H          0.97380000       0.44270000       0.95400000
    59  C          0.44249100       0.83075000       0.18612000
    60  C          0.55750900       0.83075000       0.81388000
    61  C          0.94249100       0.33075000       0.18612000
    62  C          0.05750900       0.33075000       0.81388000
    63  C          0.38986900       0.91393000       0.15702000
    64  C          0.61013100       0.91393000       0.84298000
    65  C          0.88986900       0.41393000       0.15702000
    66  C          0.11013100       0.41393000       0.84298000
    67  H          0.37100000       0.84710000       0.08340000
    68  H          0.62900000       0.84710000       0.91660000
    69  H          0.87100000       0.34710000       0.08340000
    70  H          0.12900000       0.34710000       0.91660000
    71  C          0.46728100       0.93731000       0.29622000
    72  C          0.53271900       0.93731000       0.70378000
    73  C          0.96728100       0.43731000       0.29622000
    74  C          0.03271900       0.43731000       0.70378000
    75  H          0.50240000       0.88510000       0.32080000
    76  H          0.49760000       0.88510000       0.67920000
    77  H          0.00240000       0.38510000       0.32080000
    78  H         -0.00240000       0.38510000       0.67920000
    79  C          0.36594800       0.09456000       0.23702000
    80  C          0.63405200       0.09456000       0.76298000
    81  C          0.86594800       0.59456000       0.23702000
    82  C          0.13405200       0.59456000       0.76298000
    83  H          0.33040000       0.14600000       0.21610000
    84  H          0.66960000       0.14600000       0.78390000
    85  H          0.83040000       0.64600000       0.21610000
    86  H          0.16960000       0.64600000       0.78390000
    87  C          0.44054900       0.12088000       0.37032000
    88  C          0.55945100       0.12088000       0.62968000
    89  C          0.94054900       0.62088000       0.37032000
    90  C          0.05945100       0.62088000       0.62968000
    91  H          0.45870000       0.19260000       0.44390000
    92  H          0.54130000       0.19260000       0.55610000
    93  H          0.95870000       0.69260000       0.44390000
    94  H          0.04130000       0.69260000       0.55610000
    95  C          0.47145130       0.64384000       0.09663000
    96  C          0.52854870       0.64384000       0.90337000
    97  C          0.97145130       0.14384000       0.09663000
    98  C          0.02854870       0.14384000       0.90337000
    99  H          0.44590000       0.51830000       0.05140000
   100  H          0.55410000       0.51830000       0.94860000
   101  H          0.94590000       0.01830000       0.05140000
   102  H          0.05410000       0.01830000       0.94860000
   103  H          0.49760000       0.52820000       0.14580000
   104  H          0.50240000       0.52820000       0.85420000
   105  H         -0.00240000       0.02820000       0.14580000
   106  H          0.00240000       0.02820000       0.85420000
