data_XONQIC
_symmetry_space_group_name_H-M    'P1'
_symmetry_Int_Tables_number       1
loop_
_symmetry_equiv_pos_site_id
_symmetry_equiv_pos_as_xyz
1 x,y,z
_cell_length_a                   3.76624
_cell_length_b                   13.182215
_cell_length_c                   13.194315
_cell_angle_alpha                109.1482
_cell_angle_beta                 92.9912
_cell_angle_gamma                96.2142
loop_
_atom_site_label
_atom_site_type_symbol
_atom_site_fract_x
_atom_site_fract_y
_atom_site_fract_z
     1  Cl         0.43694110       0.03906300       0.16478300
     2  Cl         0.56305890       0.96093700       0.83521700
     3  N          0.41484000       0.24583110       0.25491110
     4  N          0.58516000       0.75416890       0.74508890
     5  N          0.44075000       0.42838120       0.34953130
     6  N          0.55925000       0.57161880       0.65046870
     7  C          0.32414000       0.16360130       0.16281130
     8  C          0.67586000       0.83639870       0.83718870
     9  C          0.15225000       0.16889140       0.07053140
    10  C          0.84775000       0.83110860       0.92946860
    11  C          0.06095000       0.27090140       0.07588140
    12  C          0.93905000       0.72909860       0.92411860
    13  C          0.14755000       0.35806140       0.16840140
    14  C          0.85245000       0.64193860       0.83159860
    15  C          0.32985000       0.34412130       0.25800130
    16  C          0.67015000       0.65587870       0.74199870
    17  H          0.09860000       0.10751800       0.00851800
    18  H          0.90140000       0.89248200      -0.00851800
    19  H          0.92540000       0.27741700       0.01391700
    20  H          0.07460000       0.72258300       0.98608300
    21  H          0.08660000       0.42741800       0.17221700
    22  H          0.91340000       0.57258200       0.82778300
    23  H          0.33060000       0.48791800       0.36371700
    24  H          0.66940000       0.51208200       0.63628300
    25  H          0.52560000       0.41351800       0.40621800
    26  H          0.47440000       0.58648200       0.59378200
    27  Cl         0.47567110       0.38804300       0.88927300
    28  Cl         0.52432890       0.61195700       0.11072700
    29  O          0.69764000       0.19007100       0.41845100
    30  O          0.30236000       0.80992900       0.58154900
    31  O          0.79224000       0.36580100       0.51949100
    32  O          0.20776000       0.63419900       0.48050900
    33  C          0.12894000       0.31751130       0.68974130
    34  C          0.87106000       0.68248870       0.31025870
    35  C          0.25864000       0.28770130       0.77422130
    36  C          0.74136000       0.71229870       0.22577870
    37  C          0.22305000       0.17999140       0.76974140
    38  C          0.77695000       0.82000860       0.23025860
    39  C          0.05335000       0.10050140       0.67723140
    40  C          0.94665000       0.89949860       0.32276860
    41  C          0.92025000       0.12817130       0.59100130
    42  C          0.07975000       0.87182870       0.40899870
    43  C         -0.04366000       0.23665130       0.59728130
    44  C          0.04366000       0.76334870       0.40271870
    45  C          0.80764000       0.27080130       0.50834130
    46  C          0.19236000       0.72919870       0.49165870
    47  H          0.15560000       0.39091800       0.69281700
    48  H          0.84440000       0.60908200       0.30718300
    49  H          0.31560000       0.16191800       0.83391700
    50  H          0.68440000       0.83808200       0.16608300
    51  H          0.02160000       0.02661900       0.67521700
    52  H         -0.02160000       0.97338100       0.32478300
    53  H          0.79850000       0.07721600       0.52791600
    54  H          0.20150000       0.92278400       0.47208400
    55  H          0.62080000       0.21520000       0.37020000
    56  H          0.37920000       0.78480000       0.62980000
