data_XONQOI
_symmetry_space_group_name_H-M    'P1'
_symmetry_Int_Tables_number       1
loop_
_symmetry_equiv_pos_site_id
_symmetry_equiv_pos_as_xyz
1 x,y,z
_cell_length_a                   17.0614
_cell_length_b                   5.315915
_cell_length_c                   13.7004
_cell_angle_alpha                90.0
_cell_angle_beta                 104.6421
_cell_angle_gamma                90.0
loop_
_atom_site_label
_atom_site_type_symbol
_atom_site_fract_x
_atom_site_fract_y
_atom_site_fract_z
     1  Cl         0.10253100       0.43433000       0.08661110
     2  Cl         0.89746900       0.93433000       0.41338890
     3  Cl         0.89746900       0.56567000       0.91338890
     4  Cl         0.10253100       0.06567000       0.58661110
     5  N          0.16563000       0.33661000       0.27654000
     6  N          0.83437000       0.83661000       0.22346000
     7  N          0.83437000       0.66339000       0.72346000
     8  N          0.16563000       0.16339000       0.77654000
     9  N          0.23073000       0.22041100       0.43944000
    10  N          0.76927000       0.72041100       0.06056000
    11  N          0.76927000       0.77958900       0.56056000
    12  N          0.23073000       0.27958900       0.93944000
    13  H          0.25580000       0.10630000       0.41470000
    14  H          0.74420000       0.60630000       0.08530000
    15  H          0.74420000       0.89370000       0.58530000
    16  H          0.25580000       0.39370000       0.91470000
    17  H          0.23960000       0.23750000       0.50370000
    18  H          0.76040000       0.73750000      -0.00370000
    19  H          0.76040000       0.76250000       0.49630000
    20  H          0.23960000       0.26250000       0.00370000
    21  C          0.17674000       0.37391200       0.37675000
    22  C          0.82326000       0.87391200       0.12325000
    23  C          0.82326000       0.62608800       0.62325000
    24  C          0.17674000       0.12608800       0.87675000
    25  C          0.13744000       0.57131200       0.41415000
    26  C          0.86256000       0.07131200       0.08585000
    27  C          0.86256000       0.42868800       0.58585000
    28  C          0.13744000       0.92868800       0.91415000
    29  H          0.14460000       0.59210000       0.48330000
    30  H          0.85540000       0.09210000       0.01670000
    31  H          0.85540000       0.40790000       0.51670000
    32  H          0.14460000       0.90790000       0.98330000
    33  C          0.08804000       0.73281200       0.34725000
    34  C          0.91196000       0.23281200       0.15275000
    35  C          0.91196000       0.26718800       0.65275000
    36  C          0.08804000       0.76718800       0.84725000
    37  H          0.06290000       0.86630000       0.37090000
    38  H          0.93710000       0.36630000       0.12910000
    39  H          0.93710000       0.13370000       0.62910000
    40  H          0.06290000       0.63370000       0.87090000
    41  C          0.07584000       0.69541200       0.24335000
    42  C          0.92416000       0.19541200       0.25665000
    43  C          0.92416000       0.30458800       0.75665000
    44  C          0.07584000       0.80458800       0.74335000
    45  H          0.04290000       0.80110000       0.19610000
    46  H          0.95710000       0.30110000       0.30390000
    47  H          0.95710000       0.19890000       0.80390000
    48  H          0.04290000       0.69890000       0.69610000
    49  C          0.11514000       0.49441200       0.21514000
    50  C          0.88486000      -0.00558800       0.28486000
    51  C          0.88486000       0.50558800       0.78486000
    52  C          0.11514000       0.00558800       0.71514000
    53  O          0.24813000       0.01009000       0.17803000
    54  O          0.75187000       0.51009000       0.32197000
    55  O          0.75187000      -0.01009000       0.82197000
    56  O          0.24813000       0.48991000       0.67803000
    57  H          0.22140000       0.09240000       0.20870000
    58  H          0.77860000       0.59240000       0.29130000
    59  H          0.77860000       0.90760000       0.79130000
    60  H          0.22140000       0.40760000       0.70870000
    61  O          0.28813000       0.81839000       0.32783000
    62  O          0.71187000       0.31839000       0.17217000
    63  O          0.71187000       0.18161000       0.67217000
    64  O          0.28813000       0.68161000       0.82783000
    65  N          0.38164000       0.40731100       0.34484000
    66  N          0.61836000       0.90731100       0.15516000
    67  N          0.61836000       0.59268900       0.65516000
    68  N          0.38164000       0.09268900       0.84484000
    69  H          0.40860000       0.28090000       0.37500000
    70  H          0.59140000       0.78090000       0.12500000
    71  H          0.59140000       0.71910000       0.62500000
    72  H          0.40860000       0.21910000       0.87500000
    73  H          0.35340000       0.49780000       0.37540000
    74  H          0.64660000      -0.00220000       0.12460000
    75  H          0.64660000       0.50220000       0.62460000
    76  H          0.35340000       0.00220000       0.87540000
    77  C          0.38333000       0.46491100       0.24674000
    78  C          0.61667000       0.96491100       0.25326000
    79  C          0.61667000       0.53508900       0.75326000
    80  C          0.38333000       0.03508900       0.74674000
    81  C          0.43014000       0.31241300       0.19865000
    82  C          0.56986000       0.81241300       0.30135000
    83  C          0.56986000       0.68758700       0.80135000
    84  C          0.43014000       0.18758700       0.69865000
    85  H          0.45580000       0.17090000       0.23190000
    86  H          0.54420000       0.67090000       0.26810000
    87  H          0.54420000       0.82910000       0.76810000
    88  H          0.45580000       0.32910000       0.73190000
    89  C          0.43844000       0.36791300       0.10405000
    90  C          0.56156000       0.86791300       0.39595000
    91  C          0.56156000       0.63208700       0.89595000
    92  C          0.43844000       0.13208700       0.60405000
    93  H          0.46950000       0.26420000       0.07400000
    94  H          0.53050000       0.76420000       0.42600000
    95  H          0.53050000       0.73580000       0.92600000
    96  H          0.46950000       0.23580000       0.57400000
    97  C          0.40034000       0.58051300       0.05235000
    98  C          0.59966000       0.08051300       0.44765000
    99  C          0.59966000       0.41948700       0.94765000
   100  C          0.40034000       0.91948700       0.55235000
   101  H          0.40760000       0.62190000       0.98920000
   102  H          0.59240000       0.12190000       0.51080000
   103  H          0.59240000       0.37810000       0.01080000
   104  H          0.40760000       0.87810000       0.48920000
   105  C          0.35174000       0.72831200       0.09644000
   106  C          0.64826000       0.22831200       0.40356000
   107  C          0.64826000       0.27168800       0.90356000
   108  C          0.35174000       0.77168800       0.59644000
   109  H          0.32480000       0.86580000       0.06120000
   110  H          0.67520000       0.36580000       0.43880000
   111  H          0.67520000       0.13420000       0.93880000
   112  H          0.32480000       0.63420000       0.56120000
   113  C          0.34214000       0.67421200       0.19364000
   114  C          0.65786000       0.17421200       0.30636000
   115  C          0.65786000       0.32578800       0.80636000
   116  C          0.34214000       0.82578800       0.69364000
   117  C          0.29084000       0.83721200       0.23925000
   118  C          0.70916000       0.33721200       0.26075000
   119  C          0.70916000       0.16278800       0.76075000
   120  C          0.29084000       0.66278800       0.73925000
