data_XOQYUA
_symmetry_space_group_name_H-M    'P1'
_symmetry_Int_Tables_number       1
loop_
_symmetry_equiv_pos_site_id
_symmetry_equiv_pos_as_xyz
1 x,y,z
_cell_length_a                   9.56725
_cell_length_b                   10.48586
_cell_length_c                   18.73619
_cell_angle_alpha                82.1004
_cell_angle_beta                 77.7224
_cell_angle_gamma                72.7845
loop_
_atom_site_label
_atom_site_type_symbol
_atom_site_fract_x
_atom_site_fract_y
_atom_site_fract_z
     1  Cl         0.17772100       0.67378100       0.27398600
     2  Cl         0.82227900       0.32621900       0.72601400
     3  Cl         0.96789900       0.88508800       0.17850500
     4  Cl         0.03210100       0.11491200       0.82149500
     5  Cl         0.55776900       0.60916900       0.25883500
     6  Cl         0.44223100       0.39083100       0.74116500
     7  Cl         0.76717110       0.39962900       0.35346500
     8  Cl         0.23282890       0.60037100       0.64653500
     9  O          0.05903000       0.44803000       0.33883150
    10  O          0.94097000       0.55197000       0.66116850
    11  O          0.69263000       0.81672000       0.17741140
    12  O          0.30737000       0.18328000       0.82258860
    13  C          0.97344000       0.53463000       0.30301180
    14  C          0.02656000       0.46537000       0.69698820
    15  C          0.01143000       0.65253000       0.26425180
    16  C          0.98857000       0.34747000       0.73574820
    17  C          0.91973000       0.74453000       0.22237180
    18  C          0.08027000       0.25547000       0.77762820
    19  C          0.77553000       0.73363000       0.21535170
    20  C          0.22447000       0.26637000       0.78464830
    21  C          0.73393000       0.61993000       0.25893180
    22  C          0.26607000       0.38007000       0.74106820
    23  C          0.82504000       0.52823000       0.30002180
    24  C          0.17496000       0.47177000       0.69997820
    25  Cl         0.18696800       0.64010900       0.06905500
    26  Cl         0.81303200       0.35989100       0.93094500
    27  Cl         0.96365900       0.86391800       0.98442500
    28  Cl         0.03634100       0.13608200       0.01557500
    29  Cl         0.55838900       0.58402900       0.06336500
    30  Cl         0.44161100       0.41597100       0.93663500
    31  Cl         0.78148100       0.36388800       0.15010500
    32  Cl         0.21851900       0.63611200       0.84989500
    33  O          0.05323000       0.43472000       0.15029160
    34  O          0.94677000       0.56528000       0.84970840
    35  O          0.68133000       0.80393000      -0.00679150
    36  O          0.31867000       0.19607000       0.00679150
    37  C          0.96943000       0.51823000       0.11299180
    38  C          0.03057000       0.48177000       0.88700820
    39  C          0.00913000       0.63323000       0.07094170
    40  C          0.99087000       0.36677000       0.92905830
    41  C          0.91423000       0.72693000       0.03257160
    42  C          0.08577000       0.27307000       0.96742840
    43  C          0.76673000       0.71843000       0.02930170
    44  C          0.23327000       0.28157000       0.97069830
    45  C          0.72943000       0.60093000       0.06893170
    46  C          0.27057000       0.39907000       0.93106830
    47  C          0.82453000       0.50693000       0.10720170
    48  C          0.17547000       0.49307000       0.89279830
    49  Cl         0.33223120       0.50075130       0.44227700
    50  Cl         0.66776880       0.49924870       0.55772300
    51  Cl         0.91729860       0.22913100       0.51605600
    52  Cl         0.08270140       0.77086900       0.48394400
    53  O          0.20834000       0.27413000       0.46922000
    54  O          0.79166000       0.72587000       0.53078000
    55  C          0.11375000       0.37724000       0.48142000
    56  C          0.88625000       0.62276000       0.51858000
    57  C          0.15014000       0.50684000       0.47362000
    58  C          0.84986000       0.49316000       0.52638000
    59  C          0.95515000       0.37954000       0.50842000
    60  C          0.04485000       0.62046000       0.49158000
    61  O          0.25625000       0.97646000       0.44624180
    62  O          0.74375000       0.02354000       0.55375820
    63  O          0.46104000       0.86606000       0.37272180
    64  O          0.53896000       0.13394000       0.62727820
    65  N          0.28263000      -0.00063000       0.19113150
    66  N          0.71737000       0.00063000       0.80886850
    67  C          0.33674000       0.94987000       0.25246190
    68  C          0.66326000       0.05013000       0.74753810
    69  H          0.41920000       0.87550000       0.25140000
    70  H          0.58080000       0.12450000       0.74860000
    71  C          0.27054000       0.00873000       0.31722000
    72  C          0.72946000      -0.00873000       0.68278000
    73  C          0.14855000       0.12074000       0.31712000
    74  C          0.85145000       0.87926000       0.68288000
    75  H          0.10160000       0.16070000       0.36050000
    76  H          0.89840000       0.83930000       0.63950000
    77  C          0.09755000       0.17184000       0.25393000
    78  C          0.90245000       0.82816000       0.74607000
    79  H          0.01700000       0.24770000       0.25350000
    80  H          0.98300000       0.75230000       0.74650000
    81  C          0.16654000       0.11004000       0.19052000
    82  C          0.83346000       0.88996000       0.80948000
    83  H          0.13280000       0.14470000       0.14690000
    84  H          0.86720000       0.85530000       0.85310000
    85  C          0.34904000       0.92966000       0.12322000
    86  C          0.65096000       0.07034000       0.87678000
    87  H          0.29850000       0.97710000       0.08430000
    88  H          0.70150000       0.02290000       0.91570000
    89  H          0.33920000       0.84010000       0.13130000
    90  H          0.66080000       0.15990000       0.86870000
    91  H          0.45250000       0.92660000       0.11010000
    92  H          0.54750000       0.07340000       0.88990000
    93  C          0.32725000       0.95086000       0.38652000
    94  C          0.67275000       0.04914000       0.61348000
    95  C          0.52018000       0.79453000       0.43643000
    96  C          0.47982000       0.20547000       0.56357000
    97  H          0.61700000       0.73570000       0.42110000
    98  H          0.38300000       0.26430000       0.57890000
    99  H          0.45500000       0.74320000       0.46330000
   100  H          0.54500000       0.25680000       0.53670000
   101  H          0.52720000       0.85760000       0.46720000
   102  H          0.47280000       0.14240000       0.53280000
   103  O          0.55795000       0.17405000       0.39112000
   104  O          0.44205000       0.82595000       0.60888000
   105  O          0.74544000       0.04664000       0.31752170
   106  O          0.25456000       0.95336000       0.68247830
   107  N          0.55243000       0.18103000       0.13954150
   108  N          0.44757000       0.81897000       0.86045850
   109  C          0.61174000       0.13203000       0.19975190
   110  C          0.38826000       0.86797000       0.80024810
   111  H          0.69590000       0.05910000       0.19730000
   112  H          0.30410000       0.94090000       0.80270000
   113  C          0.54844000       0.18914000       0.26532000
   114  C          0.45156000       0.81086000       0.73468000
   115  C          0.42144000       0.29744000       0.26782000
   116  C          0.57856000       0.70256000       0.73218000
   117  H          0.37700000       0.33740000       0.31140000
   118  H          0.62300000       0.66260000       0.68860000
   119  C          0.36284000       0.34424000       0.20613000
   120  C          0.63716000       0.65576000       0.79387000
   121  H          0.27730000       0.41570000       0.20740000
   122  H          0.72270000       0.58430000       0.79260000
   123  C          0.43084000       0.28524000       0.14152000
   124  C          0.56916000       0.71476000       0.85848000
   125  H          0.39190000       0.31800000       0.09900000
   126  H          0.60810000       0.68200000       0.90100000
   127  C          0.62814000       0.12104000       0.06972000
   128  C          0.37186000       0.87896000       0.93028000
   129  H          0.57380000       0.16570000       0.03160000
   130  H          0.42620000       0.83430000       0.96840000
   131  H          0.63230000       0.02760000       0.07480000
   132  H          0.36770000       0.97240000       0.92520000
   133  H          0.72730000       0.13060000       0.05730000
   134  H          0.27270000       0.86940000       0.94270000
   135  C          0.61535000       0.13544000       0.33192000
   136  C          0.38465000       0.86456000       0.66808000
   137  C          0.82097000      -0.01117000       0.37813000
   138  C          0.17903000       0.01117000       0.62187000
   139  H          0.91420000       0.92640000       0.36070000
   140  H          0.08580000       0.07360000       0.63930000
   141  H          0.76030000       0.94320000       0.41370000
   142  H          0.23970000       0.05680000       0.58630000
   143  H          0.83850000       0.05860000       0.40030000
   144  H          0.16150000       0.94140000       0.59970000
