data_XORSON
_symmetry_space_group_name_H-M    'P1'
_symmetry_Int_Tables_number       1
loop_
_symmetry_equiv_pos_site_id
_symmetry_equiv_pos_as_xyz
1 x,y,z
_cell_length_a                   8.354017
_cell_length_b                   13.2843
_cell_length_c                   16.1853
_cell_angle_alpha                82.123
_cell_angle_beta                 75.193
_cell_angle_gamma                72.343
loop_
_atom_site_label
_atom_site_type_symbol
_atom_site_fract_x
_atom_site_fract_y
_atom_site_fract_z
     1  I          0.85598500       0.04475300       0.13173200
     2  I          0.14401500       0.95524700       0.86826800
     3  C          0.01894000       0.12052000       0.12117190
     4  C          0.98106000       0.87948000       0.87882810
     5  C          0.11564000       0.14013000       0.04164190
     6  C          0.88436000       0.85987000       0.95835810
     7  H          0.09900000       0.11780000      -0.00680000
     8  H          0.90100000       0.88220000       0.00680000
     9  C          0.23724000       0.19313000       0.03409180
    10  C          0.76276000       0.80687000       0.96590820
    11  H          0.30250000       0.20640000       0.98010000
    12  H          0.69750000       0.79360000       0.01990000
    13  C          0.26444000       0.22702000       0.10463170
    14  C          0.73556000       0.77298000       0.89536830
    15  C          0.16104000       0.20952000       0.18430170
    16  C          0.83896000       0.79048000       0.81569830
    17  H          0.17370000       0.23460000       0.23240000
    18  H          0.82630000       0.76540000       0.76760000
    19  C          0.04004000       0.15552000       0.19291190
    20  C          0.95996000       0.84448000       0.80708810
    21  H          0.97320000       0.14280000       0.24660000
    22  H          0.02680000       0.85720000       0.75340000
    23  C          0.40624000       0.27553000       0.10146170
    24  C          0.59376000       0.72447000       0.89853830
    25  H          0.35980000       0.33780000       0.13450000
    26  H          0.64020000       0.66220000       0.86550000
    27  H          0.49330000       0.22540000       0.12770000
    28  H          0.50670000       0.77460000       0.87230000
    29  C          0.63314000       0.23933000       0.97448000
    30  C          0.36686000       0.76067000       0.02552000
    31  H          0.67840000       0.17620000       0.00410000
    32  H          0.32160000       0.82380000      -0.00410000
    33  C          0.71884000       0.26013000       0.89268000
    34  C          0.28116000       0.73987000       0.10732000
    35  H          0.82120000       0.21220000       0.86760000
    36  H          0.17880000       0.78780000       0.13240000
    37  C          0.65244000       0.35133000       0.84878000
    38  C          0.34756000       0.64867000       0.15122000
    39  H          0.71020000       0.36630000       0.79340000
    40  H          0.28980000       0.63370000       0.20660000
    41  C          0.49724000       0.42312000       0.88637820
    42  C          0.50276000       0.57688000       0.11362180
    43  C          0.42275000       0.51853000       0.84388000
    44  C          0.57725000       0.48147000       0.15612000
    45  H          0.47610000       0.53590000       0.78820000
    46  H          0.52390000       0.46410000       0.21180000
    47  C          0.27345000       0.58553000       0.88357000
    48  C          0.72655000       0.41447000       0.11643000
    49  H          0.22490000       0.64820000       0.85460000
    50  H          0.77510000       0.35180000       0.14540000
    51  C          0.19194000       0.56213000       0.96677000
    52  C          0.80806000       0.43787000       0.03323000
    53  H          0.08950000       0.60930000      -0.00730000
    54  H          0.91050000       0.39070000       0.00730000
    55  C          0.25974000       0.47063000       0.01142000
    56  C          0.74026000       0.52937000       0.98858000
    57  H          0.20450000       0.45580000       0.06740000
    58  H          0.79550000       0.54420000       0.93260000
    59  C          0.41324000       0.39932000       0.97169830
    60  C          0.58676000       0.60068000       0.02830170
    61  N          0.48803000       0.30607190       0.01286140
    62  N          0.51197000       0.69392810       0.98713860
    63  C          0.08413000       0.43922000       0.30289190
    64  C          0.91587000       0.56078000       0.69710810
    65  C          0.84546000       0.37872000       0.38880170
    66  C          0.15454000       0.62128000       0.61119830
    67  C          0.00493000       0.40104190       0.38479160
    68  C         -0.00493000       0.59895810       0.61520840
    69  C          0.07833000       0.38564180       0.45542160
    70  C          0.92167000       0.61435820       0.54457840
    71  C          0.23683000       0.40822190       0.44909160
    72  C          0.76317000       0.59177810       0.55090840
    73  H          0.29320000       0.43310000       0.39660000
    74  H          0.70680000       0.56690000       0.60340000
    75  C          0.30753000       0.39427180       0.51761160
    76  C          0.69247000       0.60572820       0.48238840
    77  H          0.41210000       0.40910000       0.51120000
    78  H          0.58790000       0.59090000       0.48880000
    79  C          0.22493000       0.35713180       0.59991160
    80  C          0.77507000       0.64286820       0.40008840
    81  C          0.06623000       0.33419190       0.60577160
    82  C          0.93377000       0.66580810       0.39422840
    83  H          0.00930000       0.30940000       0.65810000
    84  H          0.99070000       0.69060000       0.34190000
    85  C         -0.00323000       0.34758180       0.53713160
    86  C          0.00323000       0.65241820       0.46286840
    87  H          0.89320000       0.33160000       0.54320000
    88  H          0.10680000       0.66840000       0.45680000
    89  C          0.29883000       0.34262000       0.67017170
    90  C          0.70117000       0.65738000       0.32982830
    91  C          0.21834000       0.30842000       0.75392000
    92  C          0.78166000       0.69158000       0.24608000
    93  C          0.45984000       0.36242000       0.66274170
    94  C          0.54016000       0.63758000       0.33725830
    95  N          0.71846000       0.36242000       0.38991190
    96  N          0.28154000       0.63758000       0.61008810
    97  N          0.14604000       0.46882000       0.23649170
    98  N          0.85396000       0.53118000       0.76350830
    99  N          0.59034000       0.37752000       0.65698170
   100  N          0.40966000       0.62248000       0.34301830
   101  N          0.15744000       0.28023000       0.82077190
   102  N          0.84256000       0.71977000       0.17922810
   103  C          0.21864000       0.89832000       0.28830170
   104  C          0.78136000       0.10168000       0.71169830
   105  C          0.46404000       0.95062000       0.19842000
   106  C          0.53596000       0.04938000       0.80158000
   107  C          0.38123000       0.91792000       0.28155170
   108  C          0.61877000       0.08208000       0.71844830
   109  C          0.45333000       0.90293190       0.35261160
   110  C          0.54667000       0.09706810       0.64738840
   111  C          0.61623000       0.92071190       0.34667160
   112  C          0.38377000       0.07928810       0.65332840
   113  H          0.67560000       0.94330000       0.29410000
   114  H          0.32440000       0.05670000       0.70590000
   115  C          0.68603000       0.90551190       0.41556160
   116  C          0.31397000       0.09448810       0.58443840
   117  H          0.79230000       0.91780000       0.40970000
   118  H          0.20770000       0.08220000       0.59030000
   119  C          0.59853000       0.87073180       0.49739160
   120  C          0.40147000       0.12926820       0.50260840
   121  C          0.43583000       0.85292000       0.50346170
   122  C          0.56417000       0.14708000       0.49653830
   123  H          0.37670000       0.82980000       0.55590000
   124  H          0.62330000       0.17020000       0.44410000
   125  C          0.36603000       0.86892000       0.43458170
   126  C          0.63397000       0.13108000       0.56541830
   127  H          0.25900000       0.85750000       0.44060000
   128  H          0.74100000       0.14250000       0.55940000
   129  C          0.66843000       0.85312000       0.56899170
   130  C          0.33157000       0.14688000       0.43100830
   131  C          0.58164000       0.81482000       0.64935190
   132  C          0.41836000       0.18518000       0.35064810
   133  C          0.82904000       0.87082000       0.56815180
   134  C          0.17096000       0.12918000       0.43184820
   135  N          0.09054000       0.88162000       0.29246180
   136  N          0.90946000       0.11838000       0.70753820
   137  N          0.52814000       0.97722000       0.13178180
   138  N          0.47186000       0.02278000       0.86821820
   139  N          0.51284000       0.78332000       0.71295170
   140  N          0.48716000       0.21668000       0.28704830
   141  N          0.95734000       0.88372000       0.57006180
   142  N          0.04266000       0.11628000       0.42993820
