data_XOSWIN
_symmetry_space_group_name_H-M    'P1'
_symmetry_Int_Tables_number       1
loop_
_symmetry_equiv_pos_site_id
_symmetry_equiv_pos_as_xyz
1 x,y,z
_cell_length_a                   5.24973
_cell_length_b                   49.9772
_cell_length_c                   7.68975
_cell_angle_alpha                90.0
_cell_angle_beta                 104.5736
_cell_angle_gamma                90.0
loop_
_atom_site_label
_atom_site_type_symbol
_atom_site_fract_x
_atom_site_fract_y
_atom_site_fract_z
     1  O          0.93463000       0.20115300       0.68272000
     2  O          0.06537000       0.70115300       0.81728000
     3  O          0.06537000       0.79884700       0.31728000
     4  O          0.93463000       0.29884700       0.18272000
     5  O          0.59474000       0.17810300       0.51882000
     6  O          0.40526000       0.67810300       0.98118000
     7  O          0.40526000       0.82189700       0.48118000
     8  O          0.59474000       0.32189700       0.01882000
     9  O          0.52814000       0.03182300       0.47782000
    10  O          0.47186000       0.53182300       0.02218000
    11  O          0.47186000       0.96817700       0.52218000
    12  O          0.52814000       0.46817700       0.97782000
    13  O          0.82844000       0.00554300       0.65553000
    14  O          0.17156000       0.50554300       0.84447000
    15  O          0.17156000       0.99445700       0.34447000
    16  O          0.82844000       0.49445700       0.15553000
    17  C          0.81275000       0.17843500       0.61763000
    18  C          0.18725000       0.67843500       0.88237000
    19  C          0.18725000       0.82156500       0.38237000
    20  C          0.81275000       0.32156500       0.11763000
    21  C          0.92655000       0.05182500       0.65154000
    22  C          0.07345000       0.55182500       0.84846000
    23  C          0.07345000       0.94817500       0.34846000
    24  C          0.92655000       0.44817500       0.15154000
    25  C         -0.02525000       0.15391500       0.68173000
    26  C          0.02525000       0.65391500       0.81827000
    27  C          0.02525000       0.84608500       0.31827000
    28  C         -0.02525000       0.34608500       0.18173000
    29  C         -0.02345000       0.10252500       0.67123000
    30  C          0.02345000       0.60252500       0.82877000
    31  C          0.02345000       0.89747500       0.32877000
    32  C         -0.02345000       0.39747500       0.17123000
    33  C          0.82975000       0.12846500       0.60833000
    34  C          0.17025000       0.62846500       0.89167000
    35  C          0.17025000       0.87153500       0.39167000
    36  C          0.82975000       0.37153500       0.10833000
    37  C          0.74065000       0.02911500       0.58473000
    38  C          0.25935000       0.52911500       0.91527000
    39  C          0.25935000       0.97088500       0.41527000
    40  C          0.74065000       0.47088500       0.08473000
    41  C          0.80275000       0.07879500       0.59343000
    42  C          0.19725000       0.57879500       0.90657000
    43  C          0.19725000       0.92120500       0.40657000
    44  C          0.80275000       0.42120500       0.09343000
    45  H          0.78640000       0.12915000       0.47430000
    46  H          0.21360000       0.62915000       0.02570000
    47  H          0.21360000       0.87085000       0.52570000
    48  H          0.78640000       0.37085000       0.97430000
    49  H          0.14050000       0.10225000       0.63130000
    50  H          0.85950000       0.60225000       0.86870000
    51  H          0.85950000       0.89775000       0.36870000
    52  H          0.14050000       0.39775000       0.13130000
    53  H          0.75350000       0.07985000       0.45940000
    54  H          0.24650000       0.57985000       0.04060000
    55  H          0.24650000       0.92015000       0.54060000
    56  H          0.75350000       0.42015000       0.95940000
    57  H          0.66550000       0.12795000       0.64330000
    58  H          0.33450000       0.62795000       0.85670000
    59  H          0.33450000       0.87205000       0.35670000
    60  H          0.66550000       0.37205000       0.14330000
    61  H          0.07760000       0.04925000       0.60640000
    62  H          0.92240000       0.54925000       0.89360000
    63  H          0.92240000       0.95075000       0.39360000
    64  H          0.07760000       0.45075000       0.10640000
    65  H          0.13560000       0.15575000       0.64340000
    66  H          0.86440000       0.65575000       0.85660000
    67  H          0.86440000       0.84425000       0.35660000
    68  H          0.13560000       0.34425000       0.14340000
    69  H          0.64160000       0.08005000       0.62930000
    70  H          0.35840000       0.58005000       0.87070000
    71  H          0.35840000       0.91995000       0.37070000
    72  H          0.64160000       0.41995000       0.12930000
    73  H          0.02450000       0.10155000       0.80440000
    74  H         -0.02450000       0.60155000       0.69560000
    75  H         -0.02450000       0.89845000       0.19560000
    76  H          0.02450000       0.39845000       0.30440000
    77  H          0.02250000       0.15405000       0.81340000
    78  H         -0.02250000       0.65405000       0.68660000
    79  H         -0.02250000       0.84595000       0.18660000
    80  H          0.02250000       0.34595000       0.31340000
    81  H         -0.00940000       0.05076000       0.78740000
    82  H          0.00940000       0.55076000       0.71260000
    83  H          0.00940000       0.94924000       0.21260000
    84  H         -0.00940000       0.44924000       0.28740000
    85  H          0.69170000       0.99313000       0.60050000
    86  H          0.30830000       0.49313000       0.89950000
    87  H          0.30830000       0.00687000       0.39950000
    88  H          0.69170000       0.50687000       0.10050000
    89  H          0.82190000       0.21609000       0.63860000
    90  H          0.17810000       0.71609000       0.86140000
    91  H          0.17810000       0.78391000       0.36140000
    92  H          0.82190000       0.28391000       0.13860000
    93  O          0.69653000       0.24598300       0.59242000
    94  O          0.30347000       0.74598300       0.90758000
    95  O          0.30347000       0.75401700       0.40758000
    96  O          0.69653000       0.25401700       0.09242000
    97  O          0.52323000       0.43934300       0.45002000
    98  O          0.47677000       0.93934300       0.04998000
    99  O          0.47677000       0.56065700       0.54998000
   100  O          0.52323000       0.06065700       0.95002000
   101  N          0.20834000       0.36186400       0.79413000
   102  N          0.79166000       0.86186400       0.70587000
   103  N          0.79166000       0.63813600       0.20587000
   104  N          0.20834000       0.13813600       0.29413000
   105  C          0.64355000       0.39484500       0.52433000
   106  C          0.35645000       0.89484500       0.97567000
   107  C          0.35645000       0.60515500       0.47567000
   108  C          0.64355000       0.10515500       0.02433000
   109  N          0.46704000       0.28173400       0.46903000
   110  N          0.53296000       0.78173400       0.03097000
   111  N          0.53296000       0.71826600       0.53097000
   112  N          0.46704000       0.21826600       0.96903000
   113  C          0.82284000       0.34701500       0.62283000
   114  C          0.17716000       0.84701500       0.87717000
   115  C          0.17716000       0.65298500       0.37717000
   116  C          0.82284000       0.15298500       0.12283000
   117  C          0.07125000       0.38441500       0.71923000
   118  C          0.92875000       0.88441500       0.78077000
   119  C          0.92875000       0.61558500       0.28077000
   120  C          0.07125000       0.11558500       0.21923000
   121  C          0.82614000       0.37572400       0.61213000
   122  C          0.17386000       0.87572400       0.88787000
   123  C          0.17386000       0.62427600       0.38787000
   124  C          0.82614000       0.12427600       0.11213000
   125  C          0.05615000       0.33971500       0.73463000
   126  C          0.94385000       0.83971500       0.76537000
   127  C          0.94385000       0.66028500       0.26537000
   128  C          0.05615000       0.16028500       0.23463000
   129  C          0.13905000       0.41140500       0.73873000
   130  C          0.86095000       0.91140500       0.76127000
   131  C          0.86095000       0.58859500       0.26127000
   132  C          0.13905000       0.08859500       0.23873000
   133  C          0.70995000       0.42163500       0.54393000
   134  C          0.29005000       0.92163500       0.95607000
   135  C          0.29005000       0.57836500       0.45607000
   136  C          0.70995000       0.07836500       0.04393000
   137  C          0.49445000       0.25523500       0.48953000
   138  C          0.50555000       0.75523500       0.01047000
   139  C          0.50555000       0.74476500       0.51047000
   140  C          0.49445000       0.24476500      -0.01047000
   141  C          0.95555000       0.42987500       0.64983000
   142  C          0.04445000       0.92987500       0.85017000
   143  C          0.04445000       0.57012500       0.35017000
   144  C          0.95555000       0.07012500       0.14983000
   145  C          0.60485000       0.32877500       0.52663000
   146  C          0.39515000       0.82877500       0.97337000
   147  C          0.39515000       0.67122500       0.47337000
   148  C          0.60485000       0.17122500       0.02663000
   149  C          0.67575000       0.29963500       0.56544000
   150  C          0.32425000       0.79963500       0.93456000
   151  C          0.32425000       0.70036500       0.43456000
   152  C          0.67575000       0.20036500       0.06544000
   153  C          0.27476000       0.23784600       0.38874000
   154  C          0.72524000       0.73784600       0.11126000
   155  C          0.72524000       0.76215400       0.61126000
   156  C          0.27476000       0.26215400       0.88874000
   157  C          0.54606000       0.46653500       0.50534000
   158  C          0.45394000       0.96653500      -0.00534000
   159  C          0.45394000       0.53346500       0.49466000
   160  C          0.54606000       0.03346500       0.00534000
   161  H          0.47350000       0.39005000       0.44830000
   162  H          0.52650000       0.89005000       0.05170000
   163  H          0.52650000       0.60995000       0.55170000
   164  H          0.47350000       0.10995000       0.94830000
   165  H          0.56650000       0.33185000       0.39440000
   166  H          0.43350000       0.83185000       0.10560000
   167  H          0.43350000       0.66815000       0.60560000
   168  H          0.56650000       0.16815000       0.89440000
   169  H         -0.00050000       0.44896000       0.66230000
   170  H          0.00050000       0.94896000       0.83770000
   171  H          0.00050000       0.55104000       0.33770000
   172  H         -0.00050000       0.05104000       0.16230000
   173  H          0.44550000       0.33285000       0.56430000
   174  H          0.55450000       0.83285000       0.93570000
   175  H          0.55450000       0.66715000       0.43570000
   176  H          0.44550000       0.16715000       0.06430000
   177  H          0.31250000       0.41725000       0.81230000
   178  H          0.68750000       0.91725000       0.68770000
   179  H          0.68750000       0.58275000       0.18770000
   180  H          0.31250000       0.08275000       0.31230000
   181  H          0.84760000       0.29526000       0.52940000
   182  H          0.15240000       0.79526000       0.97060000
   183  H          0.15240000       0.70474000       0.47060000
   184  H          0.84760000       0.20474000       0.02940000
   185  H          0.12350000       0.32225000       0.77830000
   186  H          0.87650000       0.82225000       0.72170000
   187  H          0.87650000       0.67775000       0.22170000
   188  H          0.12350000       0.17775000       0.27830000
   189  H          0.70760000       0.29616000       0.69740000
   190  H          0.29240000       0.79616000       0.80260000
   191  H          0.29240000       0.70384000       0.30260000
   192  H          0.70760000       0.20384000       0.19740000
   193  H          0.70370000       0.47526000       0.48040000
   194  H          0.29630000       0.97526000       0.01960000
   195  H          0.29630000       0.52474000       0.51960000
   196  H          0.70370000       0.02474000       0.98040000
   197  H          0.56760000       0.46776000       0.63640000
   198  H          0.43240000       0.96776000       0.86360000
   199  H          0.43240000       0.53224000       0.36360000
   200  H          0.56760000       0.03224000       0.13640000
   201  H          0.39060000       0.47556000       0.43440000
   202  H          0.60940000       0.97556000       0.06560000
   203  H          0.60940000       0.52444000       0.56560000
   204  H          0.39060000       0.02444000       0.93440000
   205  H          0.20680000       0.22859000       0.46960000
   206  H          0.79320000       0.72859000       0.03040000
   207  H          0.79320000       0.77141000       0.53040000
   208  H          0.20680000       0.27141000       0.96960000
   209  H          0.34680000       0.22498000       0.32550000
   210  H          0.65320000       0.72498000       0.17450000
   211  H          0.65320000       0.77502000       0.67450000
   212  H          0.34680000       0.27502000       0.82550000
   213  H          0.14290000       0.24719000       0.30460000
   214  H          0.85710000       0.74719000       0.19540000
   215  H          0.85710000       0.75281000       0.69540000
   216  H          0.14290000       0.25281000       0.80460000
   217  H          0.36860000       0.36165000       0.86040000
   218  H          0.63140000       0.86165000       0.63960000
   219  H          0.63140000       0.63835000       0.13960000
   220  H          0.36860000       0.13835000       0.36040000
   221  H          0.32160000       0.28755000       0.38840000
   222  H          0.67840000       0.78755000       0.11160000
   223  H          0.67840000       0.71245000       0.61160000
   224  H          0.32160000       0.21245000       0.88840000
