data_XOVREF
_symmetry_space_group_name_H-M    'P1'
_symmetry_Int_Tables_number       1
loop_
_symmetry_equiv_pos_site_id
_symmetry_equiv_pos_as_xyz
1 x,y,z
_cell_length_a                   13.482814
_cell_length_b                   4.67044
_cell_length_c                   21.267417
_cell_angle_alpha                90.0
_cell_angle_beta                 101.0298
_cell_angle_gamma                90.0
loop_
_atom_site_label
_atom_site_type_symbol
_atom_site_fract_x
_atom_site_fract_y
_atom_site_fract_z
     1  I          0.08391110       0.39863000       0.54197700
     2  I          0.91608890       0.89863000       0.95802300
     3  I          0.91608890       0.60137000       0.45802300
     4  I          0.08391110       0.10137000       0.04197700
     5  I          0.28551110       0.10313000       0.64118700
     6  I          0.71448890       0.60313000       0.85881300
     7  I          0.71448890       0.89687000       0.35881300
     8  I          0.28551110       0.39687000       0.14118700
     9  I          0.35416110       0.86643000       0.52609700
    10  I          0.64583890       0.36643000       0.97390300
    11  I          0.64583890       0.13357000       0.47390300
    12  I          0.35416110       0.63357000       0.02609700
    13  S          0.41764000       0.69061300       0.42623000
    14  S          0.58236000       0.19061300       0.07377000
    15  S          0.58236000       0.30938700       0.57377000
    16  S          0.41764000       0.80938700       0.92623000
    17  N          0.23811300       0.39140000       0.40949000
    18  N          0.76188700       0.89140000       0.09051000
    19  N          0.76188700       0.60860000       0.59051000
    20  N          0.23811300       0.10860000       0.90949000
    21  H          0.21800000       0.46410000       0.44190000
    22  H          0.78200000       0.96410000       0.05810000
    23  H          0.78200000       0.53590000       0.55810000
    24  H          0.21800000       0.03590000       0.94190000
    25  C          0.32401500       0.45950000       0.39251000
    26  C          0.67598500       0.95950000       0.10749000
    27  C          0.67598500       0.54050000       0.60749000
    28  C          0.32401500       0.04050000       0.89251000
    29  N          0.33241200       0.31940000       0.33728000
    30  N          0.66758800       0.81940000       0.16272000
    31  N          0.66758800       0.68060000       0.66272000
    32  N          0.33241200       0.18060000       0.83728000
    33  C          0.24511700       0.13750000       0.32211100
    34  C          0.75488300       0.63750000       0.17788900
    35  C          0.75488300       0.86250000       0.67788900
    36  C          0.24511700       0.36250000       0.82211100
    37  C          0.21521500       0.94550000       0.27311100
    38  C          0.78478500       0.44550000       0.22688900
    39  C          0.78478500       0.05450000       0.72688900
    40  C          0.21521500       0.55450000       0.77311100
    41  H          0.25340000       0.92220000       0.24140000
    42  H          0.74660000       0.42220000       0.25860000
    43  H          0.74660000       0.07780000       0.75860000
    44  H          0.25340000       0.57780000       0.74140000
    45  C          0.12781600       0.78850000       0.27141100
    46  C          0.87218400       0.28850000       0.22858900
    47  C          0.87218400       0.21150000       0.72858900
    48  C          0.12781600       0.71150000       0.77141100
    49  H          0.10830000       0.65140000       0.23980000
    50  H          0.89170000       0.15140000       0.26020000
    51  H          0.89170000       0.34860000       0.76020000
    52  H          0.10830000       0.84860000       0.73980000
    53  C          0.06671800       0.84350000       0.31991100
    54  C          0.93328200       0.34350000       0.18008900
    55  C          0.93328200       0.15650000       0.68008900
    56  C          0.06671800       0.65650000       0.81991100
    57  H          0.00760000       0.73950000       0.31830000
    58  H         -0.00760000       0.23950000       0.18170000
    59  H         -0.00760000       0.26050000       0.68170000
    60  H          0.00760000       0.76050000       0.81830000
    61  C          0.09201600       0.03950000       0.36731100
    62  C          0.90798400       0.53950000       0.13268900
    63  C          0.90798400       0.96050000       0.63268900
    64  C          0.09201600       0.46050000       0.86731100
    65  H          0.05160000       0.07330000       0.39730000
    66  H          0.94840000       0.57330000       0.10270000
    67  H          0.94840000       0.92670000       0.60270000
    68  H          0.05160000       0.42670000       0.89730000
    69  C          0.18231600       0.18750000       0.36841000
    70  C          0.81768400       0.68750000       0.13159000
    71  C          0.81768400       0.81250000       0.63159000
    72  C          0.18231600       0.31250000       0.86841000
    73  O          0.50442000       0.10630000       0.78611000
    74  O          0.49558000       0.60630000       0.71389000
    75  O          0.49558000       0.89370000       0.21389000
    76  O          0.50442000       0.39370000       0.28611000
    77  H          0.50320000       0.92690000       0.76550000
    78  H          0.49680000       0.42690000       0.73450000
    79  H          0.49680000       0.07310000       0.23450000
    80  H          0.50320000       0.57310000       0.26550000
    81  H          0.44300000       0.11320000       0.80090000
    82  H          0.55700000       0.61320000       0.69910000
    83  H          0.55700000       0.88680000       0.19910000
    84  H          0.44300000       0.38680000       0.30090000
