data_XOWKAX
_symmetry_space_group_name_H-M    'P1'
_symmetry_Int_Tables_number       1
loop_
_symmetry_equiv_pos_site_id
_symmetry_equiv_pos_as_xyz
1 x,y,z
_cell_length_a                   4.731512
_cell_length_b                   45.26312
_cell_length_c                   7.9292
_cell_angle_alpha                90.0
_cell_angle_beta                 106.9113
_cell_angle_gamma                90.0
loop_
_atom_site_label
_atom_site_type_symbol
_atom_site_fract_x
_atom_site_fract_y
_atom_site_fract_z
     1  Cl         0.36688140       0.24634512       0.34010800
     2  Cl         0.63311860       0.74634512       0.15989200
     3  Cl         0.63311860       0.75365488       0.65989200
     4  Cl         0.36688140       0.25365488       0.84010800
     5  N          0.53994000       0.35922400       0.38212000
     6  N          0.46006000       0.85922400       0.11788000
     7  N          0.46006000       0.64077600       0.61788000
     8  N          0.53994000       0.14077600       0.88212000
     9  O          0.85964000       0.40535300       0.33754190
    10  O          0.14036000       0.90535300       0.16245810
    11  O          0.14036000       0.59464700       0.66245810
    12  O          0.85964000       0.09464700       0.83754190
    13  O         -0.01006000       0.43882400       0.55152000
    14  O          0.01006000       0.93882400       0.94848000
    15  O          0.01006000       0.56117600       0.44848000
    16  O         -0.01006000       0.06117600       0.05152000
    17  C          0.72394000       0.39734400       0.60092000
    18  C          0.27606000       0.89734400       0.89908000
    19  C          0.27606000       0.60265600       0.39908000
    20  C          0.72394000       0.10265600       0.10092000
    21  C          0.55904000       0.37132400       0.54302000
    22  C          0.44096000       0.87132400       0.95698000
    23  C          0.44096000       0.62867600       0.45698000
    24  C          0.55904000       0.12867600       0.04302000
    25  C          0.41465000       0.35812500       0.65593000
    26  C          0.58535000       0.85812500       0.84407000
    27  C          0.58535000       0.64187500       0.34407000
    28  C          0.41465000       0.14187500       0.15593000
    29  C          0.44216000       0.36947600       0.82023000
    30  C          0.55784000       0.86947600       0.67977000
    31  C          0.55784000       0.63052400       0.17977000
    32  C          0.44216000       0.13052400       0.32023000
    33  C          0.61446000       0.39406600       0.88113000
    34  C          0.38554000       0.89406600       0.61887000
    35  C          0.38554000       0.60593400       0.11887000
    36  C          0.61446000       0.10593400       0.38113000
    37  C          0.75036000       0.40778500       0.77173000
    38  C          0.24964000       0.90778500       0.72827000
    39  C          0.24964000       0.59221500       0.22827000
    40  C          0.75036000       0.09221500       0.27173000
    41  C          0.86325000       0.41351400       0.48483000
    42  C          0.13675000       0.91351400       0.01517000
    43  C          0.13675000       0.58648600       0.51517000
    44  C          0.86325000       0.08648600      -0.01517000
    45  C          0.36454000       0.33438400       0.30712000
    46  C          0.63546000       0.83438400       0.19288000
    47  C          0.63546000       0.66561600       0.69288000
    48  C          0.36454000       0.16561600       0.80712000
    49  C          0.10995000       0.33923500       0.16873000
    50  C          0.89005000       0.83923500       0.33127000
    51  C          0.89005000       0.66076500       0.83127000
    52  C          0.10995000       0.16076500       0.66873000
    53  C          0.94195000       0.31587500       0.08383000
    54  C          0.05805000       0.81587500       0.41617000
    55  C          0.05805000       0.68412500       0.91617000
    56  C          0.94195000       0.18412500       0.58383000
    57  C          0.02355000       0.28736500       0.13823000
    58  C         -0.02355000       0.78736500       0.36177000
    59  C         -0.02355000       0.71263500       0.86177000
    60  C          0.02355000       0.21263500       0.63823000
    61  C          0.27494000       0.28282400       0.27693000
    62  C          0.72506000       0.78282400       0.22307000
    63  C          0.72506000       0.71717600       0.72307000
    64  C          0.27494000       0.21717600       0.77693000
    65  C          0.45374000       0.30566400       0.36572000
    66  C          0.54626000       0.80566400       0.13428000
    67  C          0.54626000       0.69433600       0.63428000
    68  C          0.45374000       0.19433600       0.86572000
    69  C          0.72745000       0.29979600       0.51463000
    70  C          0.27255000       0.79979600      -0.01463000
    71  C          0.27255000       0.70020400       0.48537000
    72  C          0.72745000       0.20020400       0.01463000
    73  H          0.61750000       0.36935000       0.32030000
    74  H          0.38250000       0.86935000       0.17970000
    75  H          0.38250000       0.63065000       0.67970000
    76  H          0.61750000       0.13065000       0.82030000
    77  H          0.05060000       0.44776000       0.47540000
    78  H          0.94940000       0.94776000       0.02460000
    79  H          0.94940000       0.55224000       0.52460000
    80  H          0.05060000       0.05224000       0.97540000
    81  H          0.29360000       0.34146000       0.61230000
    82  H          0.70640000       0.84146000       0.88770000
    83  H          0.70640000       0.65854000       0.38770000
    84  H          0.29360000       0.15854000       0.11230000
    85  H          0.34550000       0.36125000       0.89430000
    86  H          0.65450000       0.86125000       0.60570000
    87  H          0.65450000       0.63875000       0.10570000
    88  H          0.34550000       0.13875000       0.39430000
    89  H          0.63960000       0.40196000      -0.00560000
    90  H          0.36040000       0.90196000       0.50560000
    91  H          0.36040000       0.59804000       0.00560000
    92  H          0.63960000       0.09804000       0.49440000
    93  H          0.87550000       0.42445000       0.81430000
    94  H          0.12450000       0.92445000       0.68570000
    95  H          0.12450000       0.57555000       0.18570000
    96  H          0.87550000       0.07555000       0.31430000
    97  H          0.06050000       0.35955000       0.13030000
    98  H          0.93950000       0.85955000       0.36970000
    99  H          0.93950000       0.64045000       0.86970000
   100  H          0.06050000       0.14045000       0.63030000
   101  H          0.76350000       0.31965000      -0.01030000
   102  H          0.23650000       0.81965000       0.51030000
   103  H          0.23650000       0.68035000       0.01030000
   104  H          0.76350000       0.18035000       0.48970000
   105  H          0.91450000       0.27145000       0.08530000
   106  H          0.08550000       0.77145000       0.41470000
   107  H          0.08550000       0.72855000       0.91470000
   108  H          0.91450000       0.22855000       0.58530000
   109  H          0.67370000       0.29077000       0.61140000
   110  H          0.32630000       0.79077000       0.88860000
   111  H          0.32630000       0.70923000       0.38860000
   112  H          0.67370000       0.20923000       0.11140000
   113  H          0.85660000       0.28596000       0.48040000
   114  H          0.14340000       0.78596000       0.01960000
   115  H          0.14340000       0.71404000       0.51960000
   116  H          0.85660000       0.21404000       0.98040000
   117  H          0.83260000       0.31676000       0.55440000
   118  H          0.16740000       0.81676000       0.94560000
   119  H          0.16740000       0.68324000       0.44560000
   120  H          0.83260000       0.18324000       0.05440000
   121  N          0.18634000       0.46725400       0.31073000
   122  N          0.81366000       0.96725400       0.18927000
   123  N          0.81366000       0.53274600       0.68927000
   124  N          0.18634000       0.03274600       0.81073000
   125  C          0.24396000       0.49614500       0.31244000
   126  C          0.75604000       0.99614500       0.18756000
   127  C          0.75604000       0.50385500       0.68756000
   128  C          0.24396000       0.00385500       0.81244000
   129  C          0.36696000       0.50948500       0.19544000
   130  C          0.63304000       0.00948500       0.30456000
   131  C          0.63304000       0.49051500       0.80456000
   132  C          0.36696000       0.99051500       0.69544000
   133  C          0.43374000       0.49325400       0.06503000
   134  C          0.56626000       0.99325400       0.43497000
   135  C          0.56626000       0.50674600       0.93497000
   136  C          0.43374000       0.00674600       0.56503000
   137  C          0.36936000       0.46331500       0.06194000
   138  C          0.63064000       0.96331500       0.43806000
   139  C          0.63064000       0.53668500       0.93806000
   140  C          0.36936000       0.03668500       0.56194000
   141  C          0.25016000       0.45141500       0.18434000
   142  C          0.74984000       0.95141500       0.31566000
   143  C          0.74984000       0.54858500       0.81566000
   144  C          0.25016000       0.04858500       0.68434000
   145  H          0.18670000       0.50747000       0.40140000
   146  H          0.81330000       0.00747000       0.09860000
   147  H          0.81330000       0.49253000       0.59860000
   148  H          0.18670000       0.99253000       0.90140000
   149  H          0.40460000       0.52996000       0.20530000
   150  H          0.59540000       0.02996000       0.29470000
   151  H          0.59540000       0.47004000       0.79470000
   152  H          0.40460000       0.97004000       0.70530000
   153  H          0.40770000       0.45177000       0.97960000
   154  H          0.59230000       0.95177000       0.52040000
   155  H          0.59230000       0.54823000       0.02040000
   156  H          0.40770000       0.04823000       0.47960000
   157  H          0.21960000       0.43046000       0.18740000
   158  H          0.78040000       0.93046000       0.31260000
   159  H          0.78040000       0.56954000       0.81260000
   160  H          0.21960000       0.06954000       0.68740000
