data_XOZBUJ
_symmetry_space_group_name_H-M    'P1'
_symmetry_Int_Tables_number       1
loop_
_symmetry_equiv_pos_site_id
_symmetry_equiv_pos_as_xyz
1 x,y,z
_cell_length_a                   11.4972
_cell_length_b                   12.6662
_cell_length_c                   12.8692
_cell_angle_alpha                68.574
_cell_angle_beta                 72.071
_cell_angle_gamma                80.711
loop_
_atom_site_label
_atom_site_type_symbol
_atom_site_fract_x
_atom_site_fract_y
_atom_site_fract_z
     1  I          0.76277400       0.03793400       0.48589400
     2  I          0.23722600       0.96206600       0.51410600
     3  I          0.95184400       0.20278400       0.52613400
     4  I          0.04815600       0.79721600       0.47386600
     5  I          0.50853300       0.25098400       0.51667300
     6  I          0.49146700       0.74901600       0.48332700
     7  I          0.71509400       0.42852500       0.51682500
     8  I          0.28490600       0.57147500       0.48317500
     9  C          0.77896000       0.19215000       0.50825000
    10  C          0.22104000       0.80785000       0.49175000
    11  C          0.69006000       0.27136000       0.51025000
    12  C          0.30994000       0.72864000       0.48975000
    13  I          0.68532400       0.95130700       0.07750300
    14  I          0.31467600       0.04869300       0.92249700
    15  I          0.62895400       0.13029400       0.81559300
    16  I          0.37104600       0.86970600       0.18440700
    17  C          0.55726000       0.01545000       0.98115000
    18  C          0.44274000       0.98455000       0.01885000
    19  S          0.22500160       0.22115190       0.54519160
    20  S          0.77499840       0.77884810       0.45480840
    21  C          0.17586000       0.18546000       0.68656000
    22  C          0.82414000       0.81454000       0.31344000
    23  N          0.13926000       0.16046000       0.78665000
    24  N          0.86074000       0.83954000       0.21335000
    25  P          0.76544140       0.35281130       0.05624120
    26  P          0.23455860       0.64718870       0.94375880
    27  C          0.88165000       0.25855000       0.11275000
    28  C          0.11835000       0.74145000       0.88725000
    29  C          0.94636000       0.28806000       0.17125000
    30  C          0.05364000       0.71194000       0.82875000
    31  H          0.92790000       0.35900000       0.18370000
    32  H          0.07210000       0.64100000       0.81630000
    33  C          0.03817000       0.21436000       0.21216000
    34  C          0.96183000       0.78564000       0.78784000
    35  H          0.08360000       0.23550000       0.25100000
    36  H          0.91640000       0.76450000       0.74900000
    37  C          0.06307000       0.11107000       0.19627000
    38  C          0.93693000       0.88893000       0.80373000
    39  H          0.12580000       0.06050000       0.22420000
    40  H          0.87420000       0.93950000       0.77580000
    41  C         -0.00323000       0.07996000       0.13947000
    42  C          0.00323000       0.92004000       0.86053000
    43  H          0.01390000       0.00790000       0.12890000
    44  H          0.98610000       0.99210000       0.87110000
    45  C          0.90616000       0.15296000       0.09806000
    46  C          0.09384000       0.84704000       0.90194000
    47  H          0.86030000       0.13120000       0.05960000
    48  H          0.13970000       0.86880000       0.94040000
    49  C          0.81776000       0.41325000       0.90105000
    50  C          0.18224000       0.58675000       0.09895000
    51  C          0.91186000       0.36236000       0.83644000
    52  C          0.08814000       0.63764000       0.16356000
    53  H          0.95120000       0.29280000       0.87310000
    54  H          0.04880000       0.70720000       0.12690000
    55  C          0.94827000       0.41427000       0.71714000
    56  C          0.05173000       0.58573000       0.28286000
    57  H          0.01280000       0.37950000       0.67170000
    58  H          0.98720000       0.62050000       0.32830000
    59  C          0.89278000       0.51387000       0.66434000
    60  C          0.10722000       0.48613000       0.33566000
    61  H          0.92070000       0.54910000       0.58280000
    62  H          0.07930000       0.45090000       0.41720000
    63  C          0.79638000       0.56447000       0.72774000
    64  C          0.20362000       0.43553000       0.27226000
    65  H          0.75550000       0.63250000       0.69010000
    66  H          0.24450000       0.36750000       0.30990000
    67  C          0.75987000       0.51406000       0.84764000
    68  C          0.24013000       0.48594000       0.15236000
    69  H          0.69510000       0.54890000       0.89300000
    70  H          0.30490000       0.45110000       0.10700000
    71  C          0.63076000       0.27745000       0.10005000
    72  C          0.36924000       0.72255000       0.89995000
    73  C          0.55436000       0.30016000       0.02786000
    74  C          0.44564000       0.69984000       0.97214000
    75  H          0.57710000       0.35100000       0.95030000
    76  H          0.42290000       0.64900000       0.04970000
    77  C          0.44447000       0.24747000       0.07108000
    78  C          0.55553000       0.75253000       0.92892000
    79  H          0.39110000       0.26300000       0.02300000
    80  H          0.60890000       0.73700000       0.97700000
    81  C          0.41217000       0.17297000       0.18238000
    82  C          0.58783000       0.82703000       0.81762000
    83  H          0.33610000       0.13790000       0.21100000
    84  H          0.66390000       0.86210000       0.78900000
    85  C          0.48797000       0.14876000       0.25237000
    86  C          0.51203000       0.85124000       0.74763000
    87  H          0.46490000       0.09600000       0.32890000
    88  H          0.53510000       0.90400000       0.67110000
    89  C          0.59816000       0.20046000       0.21266000
    90  C          0.40184000       0.79954000       0.78734000
    91  H          0.65080000       0.18350000       0.26150000
    92  H          0.34920000       0.81650000       0.73850000
    93  C          0.73095000       0.46655000       0.11325000
    94  C          0.26905000       0.53345000       0.88675000
    95  C          0.81356000       0.55155000       0.07126000
    96  C          0.18644000       0.44845000       0.92874000
    97  H          0.88480000       0.55080000       0.00970000
    98  H          0.11520000       0.44920000      -0.00970000
    99  C          0.79187000       0.63606000       0.11867000
   100  C          0.20813000       0.36394000       0.88133000
   101  H          0.84820000       0.69380000       0.09040000
   102  H          0.15180000       0.30620000       0.90960000
   103  C          0.68758000       0.63716000       0.20766000
   104  C          0.31242000       0.36284000       0.79234000
   105  H          0.67290000       0.69520000       0.24100000
   106  H          0.32710000       0.30480000       0.75900000
   107  C          0.60528000       0.55497000       0.24776000
   108  C          0.39472000       0.44503000       0.75224000
   109  H          0.53370000       0.55700000       0.30860000
   110  H          0.46630000       0.44300000       0.69140000
   111  C          0.62407000       0.46876000       0.20136000
   112  C          0.37593000       0.53124000       0.79864000
   113  H          0.56580000       0.41260000       0.22870000
   114  H          0.43420000       0.58740000       0.77130000
