data_XOZHAX
_symmetry_space_group_name_H-M    'P1'
_symmetry_Int_Tables_number       1
loop_
_symmetry_equiv_pos_site_id
_symmetry_equiv_pos_as_xyz
1 x,y,z
_cell_length_a                   9.6742
_cell_length_b                   24.7675
_cell_length_c                   10.9822
_cell_angle_alpha                90.0
_cell_angle_beta                 90.2321
_cell_angle_gamma                90.0
loop_
_atom_site_label
_atom_site_type_symbol
_atom_site_fract_x
_atom_site_fract_y
_atom_site_fract_z
     1  S          0.41532700       0.61035300       0.10066600
     2  S          0.58467300       0.11035300       0.39933400
     3  S          0.58467300       0.38964700       0.89933400
     4  S          0.41532700       0.88964700       0.60066600
     5  O          0.39631190       0.61542700       0.23749160
     6  O          0.60368810       0.11542700       0.26250840
     7  O          0.60368810       0.38457300       0.76250840
     8  O          0.39631190       0.88457300       0.73749160
     9  C          0.57103000       0.57265120       0.08032000
    10  C          0.42897000       0.07265120       0.41968000
    11  C          0.42897000       0.42734880       0.91968000
    12  C          0.57103000       0.92734880       0.58032000
    13  H          0.64790000       0.59300000       0.11130000
    14  H          0.35210000       0.09300000       0.38870000
    15  H          0.35210000       0.40700000       0.88870000
    16  H          0.64790000       0.90700000       0.61130000
    17  H          0.58430000       0.56560000      -0.00480000
    18  H          0.41570000       0.06560000       0.50480000
    19  H          0.41570000       0.43440000       0.00480000
    20  H          0.58430000       0.93440000       0.49520000
    21  H          0.56440000       0.53910000       0.12350000
    22  H          0.43560000       0.03910000       0.37650000
    23  H          0.43560000       0.46090000       0.87650000
    24  H          0.56440000       0.96090000       0.62350000
    25  C          0.29543000       0.56001110       0.05283000
    26  C          0.70457000       0.06001110       0.44717000
    27  C          0.70457000       0.43998890       0.94717000
    28  C          0.29543000       0.93998890       0.55283000
    29  H          0.31270000       0.52710000       0.09660000
    30  H          0.68730000       0.02710000       0.40340000
    31  H          0.68730000       0.47290000       0.90340000
    32  H          0.31270000       0.97290000       0.59660000
    33  H          0.30580000       0.55360000       0.96710000
    34  H          0.69420000       0.05360000       0.53290000
    35  H          0.69420000       0.44640000       0.03290000
    36  H          0.30580000       0.94640000       0.46710000
    37  H          0.20300000       0.57210000       0.06890000
    38  H          0.79700000       0.07210000       0.43110000
    39  H          0.79700000       0.42790000       0.93110000
    40  H          0.20300000       0.92790000       0.56890000
    41  S         -0.00168700       0.38820300       0.18025600
    42  S          0.00168700       0.88820300       0.31974400
    43  S          0.00168700       0.61179700       0.81974400
    44  S         -0.00168700       0.11179700       0.68025600
    45  O          0.00900190       0.38599700       0.31722160
    46  O         -0.00900190       0.88599700       0.18277840
    47  O         -0.00900190       0.61400300       0.68277840
    48  O          0.00900190       0.11400300       0.81722160
    49  C          0.06334000       0.45284110       0.13613000
    50  C          0.93666000       0.95284110       0.36387000
    51  C          0.93666000       0.54715890       0.86387000
    52  C          0.06334000       0.04715890       0.63613000
    53  H         -0.00210000       0.48030000       0.15800000
    54  H          0.00210000       0.98030000       0.34200000
    55  H          0.00210000       0.51970000       0.84200000
    56  H         -0.00210000       0.01970000       0.65800000
    57  H          0.07740000       0.45340000       0.04960000
    58  H          0.92260000       0.95340000       0.45040000
    59  H          0.92260000       0.54660000       0.95040000
    60  H          0.07740000       0.04660000       0.54960000
    61  H          0.14960000       0.45950000       0.17690000
    62  H          0.85040000       0.95950000       0.32310000
    63  H          0.85040000       0.54050000       0.82310000
    64  H          0.14960000       0.04050000       0.67690000
    65  C          0.13953000       0.34958130       0.12392000
    66  C          0.86047000       0.84958130       0.37608000
    67  C          0.86047000       0.65041870       0.87608000
    68  C          0.13953000       0.15041870       0.62392000
    69  H          0.22420000       0.36290000       0.15840000
    70  H          0.77580000       0.86290000       0.34160000
    71  H          0.77580000       0.63710000       0.84160000
    72  H          0.22420000       0.13710000       0.65840000
    73  H          0.14280000       0.35260000       0.03680000
    74  H          0.85720000       0.85260000       0.46320000
    75  H          0.85720000       0.64740000       0.96320000
    76  H          0.14280000       0.14740000       0.53680000
    77  H          0.12750000       0.31240000       0.14620000
    78  H          0.87250000       0.81240000       0.35380000
    79  H          0.87250000       0.68760000       0.85380000
    80  H          0.12750000       0.18760000       0.64620000
    81  N          0.76922000       0.62123800       0.53281180
    82  N          0.23078000       0.12123800       0.96718820
    83  N          0.23078000       0.37876200       0.46718820
    84  N          0.76922000       0.87876200       0.03281180
    85  H          0.83540000       0.60930000       0.57790000
    86  H          0.16460000       0.10930000       0.92210000
    87  H          0.16460000       0.39070000       0.42210000
    88  H          0.83540000       0.89070000       0.07790000
    89  N          0.60142000       0.62325800       0.40013180
    90  N          0.39858000       0.12325800       0.09986820
    91  N          0.39858000       0.37674200       0.59986820
    92  N          0.60142000       0.87674200       0.90013180
    93  H          0.54220000       0.61270000       0.34660000
    94  H          0.45780000       0.11270000       0.15340000
    95  H          0.45780000       0.38730000       0.65340000
    96  H          0.54220000       0.88730000       0.84660000
    97  N          0.85472000       0.36876800       0.58026170
    98  N          0.14528000       0.86876800       0.91973830
    99  N          0.14528000       0.63123200       0.41973830
   100  N          0.85472000       0.13123200       0.08026170
   101  H          0.91090000       0.37120000       0.64090000
   102  H          0.08910000       0.87120000       0.85910000
   103  H          0.08910000       0.62880000       0.35910000
   104  H          0.91090000       0.12880000       0.14090000
   105  N          0.70262000       0.39062800       0.44299190
   106  N          0.29738000       0.89062800       0.05700810
   107  N          0.29738000       0.60937200       0.55700810
   108  N          0.70262000       0.10937200       0.94299190
   109  H          0.64440000       0.40930000       0.40130000
   110  H          0.35560000       0.90930000       0.09870000
   111  H          0.35560000       0.59070000       0.59870000
   112  H          0.64440000       0.09070000       0.90130000
   113  N          0.80942000       0.50952800       0.52181180
   114  N          0.19058000       0.00952800       0.97818820
   115  N          0.19058000       0.49047200       0.47818820
   116  N          0.80942000       0.99047200       0.02181180
   117  C          0.72483000       0.67466100       0.52642000
   118  C          0.27517000       0.17466100       0.97358000
   119  C          0.27517000       0.32533900       0.47358000
   120  C          0.72483000       0.82533900       0.02642000
   121  C          0.76563000       0.72095110       0.58972000
   122  C          0.23437000       0.22095110       0.91028000
   123  C          0.23437000       0.27904890       0.41028000
   124  C          0.76563000       0.77904890       0.08972000
   125  H          0.83680000       0.72020000       0.64680000
   126  H          0.16320000       0.22020000       0.85320000
   127  H          0.16320000       0.27980000       0.35320000
   128  H          0.83680000       0.77980000       0.14680000
   129  C          0.69433000       0.76782110       0.56293000
   130  C          0.30567000       0.26782110       0.93707000
   131  C          0.30567000       0.23217890       0.43707000
   132  C          0.69433000       0.73217890       0.06293000
   133  H          0.71720000       0.79940000       0.60400000
   134  H          0.28280000       0.29940000       0.89600000
   135  H          0.28280000       0.20060000       0.39600000
   136  H          0.71720000       0.70060000       0.10400000
   137  C          0.58753000       0.76906110       0.47463000
   138  C          0.41247000       0.26906110       0.02537000
   139  C          0.41247000       0.23093890       0.52537000
   140  C          0.58753000       0.73093890       0.97463000
   141  H          0.54270000       0.80150000       0.45840000
   142  H          0.45730000       0.30150000       0.04160000
   143  H          0.45730000       0.19850000       0.54160000
   144  H          0.54270000       0.69850000       0.95840000
   145  C          0.54843000       0.72338110       0.41223000
   146  C          0.45157000       0.22338110       0.08777000
   147  C          0.45157000       0.27661890       0.58777000
   148  C          0.54843000       0.77661890       0.91223000
   149  H          0.47860000       0.72420000       0.35360000
   150  H          0.52140000       0.22420000       0.14640000
   151  H          0.52140000       0.27580000       0.64640000
   152  H          0.47860000       0.77580000       0.85360000
   153  C          0.61813000       0.67593100       0.44082000
   154  C          0.38187000       0.17593100       0.05918000
   155  C          0.38187000       0.32406900       0.55918000
   156  C          0.61813000       0.82406900       0.94082000
   157  C          0.69242000       0.59183900       0.45782000
   158  C          0.30758000       0.09183900       0.04218000
   159  C          0.30758000       0.40816100       0.54218000
   160  C          0.69242000       0.90816100       0.95782000
   161  C          0.70002000       0.53153900       0.44532000
   162  C          0.29998000       0.03153900       0.05468000
   163  C          0.29998000       0.46846100       0.55468000
   164  C          0.70002000       0.96846100       0.94532000
   165  H          0.61220000       0.51570000       0.46840000
   166  H          0.38780000       0.01570000       0.03160000
   167  H          0.38780000       0.48430000       0.53160000
   168  H          0.61220000       0.98430000       0.96840000
   169  H          0.71750000       0.52220000       0.36090000
   170  H          0.28250000       0.02220000       0.13910000
   171  H          0.28250000       0.47780000       0.63910000
   172  H          0.71750000       0.97780000       0.86090000
   173  C          0.76942000       0.46350900       0.59722000
   174  C          0.23058000       0.96350900       0.90278000
   175  C          0.23058000       0.53649100       0.40278000
   176  C          0.76942000       0.03649100       0.09722000
   177  H          0.67570000       0.46950000       0.62520000
   178  H          0.32430000       0.96950000       0.87480000
   179  H          0.32430000       0.53050000       0.37480000
   180  H          0.67570000       0.03050000       0.12520000
   181  H          0.82880000       0.46300000       0.66850000
   182  H          0.17120000       0.96300000       0.83150000
   183  H          0.17120000       0.53700000       0.33150000
   184  H          0.82880000       0.03700000       0.16850000
   185  C          0.77512000       0.40837900       0.53882000
   186  C          0.22488000       0.90837900       0.96118000
   187  C          0.22488000       0.59162100       0.46118000
   188  C          0.77512000       0.09162100       0.03882000
   189  C          0.83353000       0.32261100       0.51062000
   190  C          0.16647000       0.82261100      -0.01062000
   191  C          0.16647000       0.67738900       0.48938000
   192  C          0.83353000       0.17738900       0.01062000
   193  C          0.89193000       0.27139100       0.51703000
   194  C          0.10807000       0.77139100       0.98297000
   195  C          0.10807000       0.72860900       0.48297000
   196  C          0.89193000       0.22860900       0.01703000
   197  H          0.95620000       0.26210000       0.57660000
   198  H          0.04380000       0.76210000       0.92340000
   199  H          0.04380000       0.73790000       0.42340000
   200  H          0.95620000       0.23790000       0.07660000
   201  C          0.84853000       0.23495110       0.42893000
   202  C          0.15147000       0.73495110       0.07107000
   203  C          0.15147000       0.76504890       0.57107000
   204  C          0.84853000       0.26504890       0.92893000
   205  H          0.88490000       0.20020000       0.42940000
   206  H          0.11510000       0.70020000       0.07060000
   207  H          0.11510000       0.79980000       0.57060000
   208  H          0.88490000       0.29980000       0.92940000
   209  C          0.75173000       0.24886110       0.33923000
   210  C          0.24827000       0.74886110       0.16077000
   211  C          0.24827000       0.75113890       0.66077000
   212  C          0.75173000       0.25113890       0.83923000
   213  H          0.72500000       0.22310000       0.28230000
   214  H          0.27500000       0.72310000       0.21770000
   215  H          0.27500000       0.77690000       0.71770000
   216  H          0.72500000       0.27690000       0.78230000
   217  C          0.69433000       0.30020110       0.33312000
   218  C          0.30567000       0.80020110       0.16688000
   219  C          0.30567000       0.69979890       0.66688000
   220  C          0.69433000       0.19979890       0.83312000
   221  H          0.63070000       0.30960000       0.27310000
   222  H          0.36930000       0.80960000       0.22690000
   223  H          0.36930000       0.69040000       0.72690000
   224  H          0.63070000       0.19040000       0.77310000
   225  C          0.73722000       0.33674900       0.42172000
   226  C          0.26278000       0.83674900       0.07828000
   227  C          0.26278000       0.66325100       0.57828000
   228  C          0.73722000       0.16325100       0.92172000
   229  C          0.93952000       0.50301100       0.45552000
   230  C          0.06048000       0.00301100       0.04448000
   231  C          0.06048000       0.49698900       0.54448000
   232  C          0.93952000      -0.00301100       0.95552000
   233  H          0.95470000       0.53420000       0.40380000
   234  H          0.04530000       0.03420000       0.09620000
   235  H          0.04530000       0.46580000       0.59620000
   236  H          0.95470000       0.96580000       0.90380000
   237  H          0.93410000       0.47130000       0.40380000
   238  H          0.06590000       0.97130000       0.09620000
   239  H          0.06590000       0.52870000       0.59620000
   240  H          0.93410000       0.02870000       0.90380000
   241  Br         0.47647300       0.43904210       0.25773200
   242  Br         0.52352700       0.93904210       0.24226800
   243  Br         0.52352700       0.56095790       0.74226800
   244  Br         0.47647300       0.06095790       0.75773200
   245  Br         0.06624300       0.39187310       0.80287200
   246  Br         0.93375700       0.89187310       0.69712800
   247  Br         0.93375700       0.60812690       0.19712800
   248  Br         0.06624300       0.10812690       0.30287200
