data_XOZTOZ
_symmetry_space_group_name_H-M    'P1'
_symmetry_Int_Tables_number       1
loop_
_symmetry_equiv_pos_site_id
_symmetry_equiv_pos_as_xyz
1 x,y,z
_cell_length_a                   14.491401
_cell_length_b                   5.192401
_cell_length_c                   19.886301
_cell_angle_alpha                90.0
_cell_angle_beta                 91.45701
_cell_angle_gamma                90.0
loop_
_atom_site_label
_atom_site_type_symbol
_atom_site_fract_x
_atom_site_fract_y
_atom_site_fract_z
     1  O          0.33006700       0.21202000       0.36846500
     2  O          0.66993300       0.71202000       0.13153500
     3  O          0.66993300       0.78798000       0.63153500
     4  O          0.33006700       0.28798000       0.86846500
     5  O          0.45094800       0.68092000       0.21782500
     6  O          0.54905200       0.18092000       0.28217500
     7  O          0.54905200       0.31908000       0.78217500
     8  O          0.45094800       0.81908000       0.71782500
     9  O          0.50094700       0.43512000       0.13845500
    10  O          0.49905300       0.93512000       0.36154500
    11  O          0.49905300       0.56488000       0.86154500
    12  O          0.50094700       0.06488000       0.63845500
    13  N          0.29558700       0.35412000       0.22970500
    14  N          0.70441300       0.85412000       0.27029500
    15  N          0.70441300       0.64588000       0.77029500
    16  N          0.29558700       0.14588000       0.72970500
    17  N          0.26238800       0.02692000       0.16075600
    18  N          0.73761200       0.52692000       0.33924400
    19  N          0.73761200       0.97308000       0.83924400
    20  N          0.26238800       0.47308000       0.66075600
    21  N          0.44334700       0.49372000       0.18064500
    22  N          0.55665300      -0.00628000       0.31935500
    23  N          0.55665300       0.50628000       0.81935500
    24  N          0.44334700       0.00628000       0.68064500
    25  C          0.35266110       0.46233000       0.34456700
    26  C          0.64733890       0.96233000       0.15543300
    27  C          0.64733890       0.53767000       0.65543300
    28  C          0.35266110       0.03767000       0.84456700
    29  H          0.41591900       0.46444500       0.32976500
    30  H          0.58408100       0.96444500       0.17023500
    31  H          0.58408100       0.53555500       0.67023500
    32  H          0.41591900       0.03555500       0.82976500
    33  H          0.34707100       0.58699600       0.38054200
    34  H          0.65292900       0.08699600       0.11945800
    35  H          0.65292900       0.41300400       0.61945800
    36  H          0.34707100       0.91300400       0.88054200
    37  C          0.28828100       0.53223000       0.28695700
    38  C          0.71171900       0.03223000       0.21304300
    39  C          0.71171900       0.46777000       0.71304300
    40  C          0.28828100       0.96777000       0.78695700
    41  H          0.22532900       0.53102700       0.30240200
    42  H          0.77467100       0.03102700       0.19759800
    43  H          0.77467100       0.46897300       0.69759800
    44  H          0.22532900       0.96897300       0.80240200
    45  H          0.30214800       0.70555900       0.27206900
    46  H          0.69785200       0.20555900       0.22793100
    47  H          0.69785200       0.29444100       0.72793100
    48  H          0.30214800       0.79444100       0.77206900
    49  C          0.23535900       0.16303000       0.21403600
    50  C          0.76464100       0.66303000       0.28596400
    51  C          0.76464100       0.83697000       0.78596400
    52  C          0.23535900       0.33697000       0.71403600
    53  C          0.34368900       0.13313000       0.14238600
    54  C          0.65631100       0.63313000       0.35761400
    55  C          0.65631100       0.86687000       0.85761400
    56  C          0.34368900       0.36687000       0.64238600
    57  H          0.37903600       0.07762000       0.10678000
    58  H          0.62096400       0.57762000       0.39322000
    59  H          0.62096400       0.92238000       0.89322000
    60  H          0.37903600       0.42238000       0.60678000
    61  C          0.36525800       0.33212000       0.18391600
    62  C          0.63474200       0.83212000       0.31608400
    63  C          0.63474200       0.66788000       0.81608400
    64  C          0.36525800       0.16788000       0.68391600
    65  C          0.15070100       0.10773000       0.25210800
    66  C          0.84929900       0.60773000       0.24789200
    67  C          0.84929900       0.89227000       0.74789200
    68  C          0.15070100       0.39227000       0.75210800
    69  H          0.11879600       0.96387700       0.23199500
    70  H          0.88120400       0.46387700       0.26800500
    71  H          0.88120400       0.03612300       0.76800500
    72  H          0.11879600       0.53612300       0.73199500
    73  H          0.11114200       0.25598200       0.25099100
    74  H          0.88885800       0.75598200       0.24900900
    75  H          0.88885800       0.74401800       0.74900900
    76  H          0.11114200       0.24401800       0.75099100
    77  H          0.16747300       0.06735400       0.29791300
    78  H          0.83252700       0.56735400       0.20208700
    79  H          0.83252700       0.93264600       0.70208700
    80  H          0.16747300       0.43264600       0.79791300
    81  H          0.37121500       0.13740000       0.37521100
    82  H          0.62878500       0.63740000       0.12478900
    83  H          0.62878500       0.86260000       0.62478900
    84  H          0.37121500       0.36260000       0.87521100
    85  S          0.35792200       0.66704200       0.01387200
    86  S          0.64207800       0.16704200       0.48612800
    87  S          0.64207800       0.33295800       0.98612800
    88  S          0.35792200       0.83295800       0.51387200
    89  S          0.04062300       0.57265100       0.13861200
    90  S          0.95937700       0.07265100       0.36138800
    91  S          0.95937700       0.42734900       0.86138800
    92  S          0.04062300       0.92734900       0.63861200
    93  S          0.11810200       0.96097300       0.93617800
    94  S          0.88189800       0.46097300       0.56382200
    95  S          0.88189800       0.03902700       0.06382200
    96  S          0.11810200       0.53902700       0.43617800
    97  N          0.19842700       0.58808000       0.07413500
    98  N          0.80157300       0.08808000       0.42586500
    99  N          0.80157300       0.41192000       0.92586500
   100  N          0.19842700       0.91192000       0.57413500
   101  N          0.09371800       0.27918000       0.03883600
   102  N          0.90628200       0.77918000       0.46116400
   103  N          0.90628200       0.72082000       0.96116400
   104  N          0.09371800       0.22082000       0.53883600
   105  N          0.22772700       0.33338000       0.98210400
   106  N          0.77227300       0.83338000       0.51789600
   107  N          0.77227300       0.66662000       0.01789600
   108  N          0.22772700       0.16662000       0.48210400
   109  C          0.25768900       0.52637000       0.02395600
   110  C          0.74231100       0.02637000       0.47604400
   111  C          0.74231100       0.47363000       0.97604400
   112  C          0.25768900      -0.02637000       0.52395600
   113  C          0.11385900       0.47707000       0.08216600
   114  C          0.88614100      -0.02293000       0.41783400
   115  C          0.88614100       0.52293000       0.91783400
   116  C          0.11385900       0.02293000       0.58216600
   117  C          0.14747800       0.19997000       0.98764400
   118  C          0.85252200       0.69997000       0.51235600
   119  C          0.85252200       0.80003000       0.01235600
   120  C          0.14747800       0.30003000       0.48764400
   121  H          0.21251200       0.71160000       0.10049000
   122  H          0.78748800       0.21160000       0.39951000
   123  H          0.78748800       0.28840000       0.89951000
   124  H          0.21251200       0.78840000       0.60049000
   125  H          0.04441400       0.20460000       0.04339000
   126  H          0.95558600       0.70460000       0.45661000
   127  H          0.95558600       0.79540000       0.95661000
   128  H          0.04441400       0.29540000       0.54339000
   129  H          0.25921200       0.30170000       0.95021000
   130  H          0.74078800       0.80170000       0.54979000
   131  H          0.74078800       0.69830000       0.04979000
   132  H          0.25921200       0.19830000       0.45021000
