data_XUBJOV
_symmetry_space_group_name_H-M    'P1'
_symmetry_Int_Tables_number       1
loop_
_symmetry_equiv_pos_site_id
_symmetry_equiv_pos_as_xyz
1 x,y,z
_cell_length_a                   8.201415
_cell_length_b                   9.198616
_cell_length_c                   15.6373
_cell_angle_alpha                86.9671
_cell_angle_beta                 86.0491
_cell_angle_gamma                72.9727
loop_
_atom_site_label
_atom_site_type_symbol
_atom_site_fract_x
_atom_site_fract_y
_atom_site_fract_z
     1  I          0.05004800       0.13696700       0.43369400
     2  I          0.94995200       0.86303300       0.56630600
     3  I          0.08844700       0.29165600       0.27245300
     4  I          0.91155300       0.70834400       0.72754700
     5  I          0.12472900       0.43481700       0.10141400
     6  I          0.87527100       0.56518300       0.89858600
     7  I          0.03894120       0.12873900       0.02650500
     8  I          0.96105880       0.87126100       0.97349500
     9  S          0.63854000       0.47674000       0.16681180
    10  S          0.36146000       0.52326000       0.83318820
    11  S          0.26634000       0.77464000       0.21355180
    12  S          0.73366000       0.22536000       0.78644820
    13  S          0.57473000       0.36733000       0.34194150
    14  S          0.42527000       0.63267000       0.65805850
    15  S          0.26263000       0.60783000       0.37966150
    16  S          0.73737000       0.39217000       0.62033850
    17  S          0.52413000       0.19223000       0.51899140
    18  S          0.47587000       0.80777000       0.48100860
    19  S          0.20903000       0.42923000       0.56167140
    20  S          0.79097000       0.57077000       0.43832860
    21  S          0.51063000      -0.00023000       0.67355160
    22  S          0.48937000       0.00023000       0.32644840
    23  S          0.12783000       0.27493000       0.72409150
    24  S          0.87217000       0.72507000       0.27590850
    25  C          0.56130000       0.65120000       0.11451100
    26  C          0.43870000       0.34880000       0.88548900
    27  C          0.39801700       0.74220000       0.11791000
    28  C          0.60198300       0.25780000       0.88209000
    29  C          0.50851300       0.50281100       0.25876000
    30  C          0.49148700       0.49718900       0.74124000
    31  C          0.36001100       0.61641100       0.27936000
    32  C          0.63998900       0.38358900       0.72064000
    33  C          0.40441000       0.43891000       0.41276000
    34  C          0.59559000       0.56109000       0.58724000
    35  C          0.38171000       0.36309000       0.48906000
    36  C          0.61829000       0.63691000       0.51094000
    37  C          0.41251000       0.16451000       0.61365000
    38  C          0.58749000       0.83549000       0.38635000
    39  C          0.26601000       0.27351000       0.63416000
    40  C          0.73399000       0.72649000       0.36584000
    41  C          0.35921400      -0.00651100       0.75607000
    42  C          0.64078600       0.00651100       0.24393000
    43  C          0.17981400       0.06721300       0.74007000
    44  C          0.82018600       0.93278700       0.25993000
    45  C          0.41041800       0.91728400       0.82579000
    46  C          0.58958200       0.08271600       0.17421000
    47  H          0.62910000       0.71360000       0.13190000
    48  H          0.37090000       0.28640000       0.86810000
    49  H          0.59120000       0.63340000       0.05410000
    50  H          0.40880000       0.36660000       0.94590000
    51  H          0.33770000       0.70300000       0.07770000
    52  H          0.66230000       0.29700000       0.92230000
    53  H          0.40180000       0.84140000       0.09500000
    54  H          0.59820000       0.15860000       0.90500000
    55  H          0.10930000       0.04410000       0.78810000
    56  H          0.89070000       0.95590000       0.21190000
    57  H          0.15150000       0.02490000       0.68940000
    58  H          0.84850000       0.97510000       0.31060000
    59  H          0.33120000       0.90700000       0.86940000
    60  H          0.66880000       0.09300000       0.13060000
    61  H          0.52640000       0.87290000       0.83240000
    62  H          0.47360000       0.12710000       0.16760000
