data_XUDCII
_symmetry_space_group_name_H-M    'P1'
_symmetry_Int_Tables_number       1
loop_
_symmetry_equiv_pos_site_id
_symmetry_equiv_pos_as_xyz
1 x,y,z
_cell_length_a                   7.6982
_cell_length_b                   5.8221
_cell_length_c                   13.6472
_cell_angle_alpha                90.0
_cell_angle_beta                 92.181
_cell_angle_gamma                90.0
loop_
_atom_site_label
_atom_site_type_symbol
_atom_site_fract_x
_atom_site_fract_y
_atom_site_fract_z
     1  C          0.26175000       0.45512000       0.26543000
     2  C          0.73825000       0.95512000       0.73457000
     3  O          0.18144000       0.62503000       0.23572000
     4  O          0.81856000       0.12503000       0.76428000
     5  C          0.30586000       0.42131000       0.37023000
     6  C          0.69414000       0.92131000       0.62977000
     7  H          0.27140000       0.53150000       0.41590000
     8  H          0.72860000       0.03150000       0.58410000
     9  C          0.39396000       0.23629000       0.40103000
    10  C          0.60604000       0.73629000       0.59897000
    11  H          0.42130000       0.21890000       0.46830000
    12  H          0.57870000       0.71890000       0.53170000
    13  C          0.44895000       0.05922000       0.33243000
    14  C          0.55105000       0.55922000       0.66757000
    15  O          0.52815000       0.88803000       0.36033000
    16  O          0.47185000       0.38803000       0.63967000
    17  C          0.40745000       0.09452000       0.22653000
    18  C          0.59255000       0.59452000       0.77347000
    19  H          0.44390000      -0.01410000       0.18060000
    20  H          0.55610000       0.48590000       0.81940000
    21  C          0.31866000       0.27981000       0.19573000
    22  C          0.68134000       0.77981000       0.80427000
    23  H          0.29190000       0.29870000       0.12840000
    24  H          0.70810000       0.79870000       0.87160000
    25  C          0.92865000       0.11038000       0.27853000
    26  C          0.07135000       0.61038000       0.72147000
    27  O          0.01054000       0.96024000       0.33972000
    28  O         -0.01054000       0.46024000       0.66028000
    29  H          0.06020000       0.86120000       0.30720000
    30  H          0.93980000       0.36120000       0.69280000
    31  C          0.85195000       0.30727000       0.31673000
    32  C          0.14805000       0.80727000       0.68327000
    33  Cl         0.86887140       0.35752000       0.44117700
    34  Cl         0.13112860       0.85752000       0.55882300
    35  C          0.76715000       0.46459000       0.25653000
    36  C          0.23285000       0.96459000       0.74347000
    37  H          0.71600000       0.59530000       0.28360000
    38  H          0.28400000       0.09530000       0.71640000
    39  C          0.75715000       0.42988000       0.15553000
    40  C          0.24285000       0.92988000       0.84447000
    41  Cl         0.64399150       0.62292000       0.08133800
    42  Cl         0.35600850       0.12292000       0.91866200
    43  C          0.83425000       0.23548000       0.11603000
    44  C          0.16575000       0.73548000       0.88397000
    45  Cl         0.82840140       0.18982000      -0.00876600
    46  Cl         0.17159860       0.68982000       0.00876600
    47  C          0.91925000       0.07718000       0.17703000
    48  C          0.08075000       0.57718000       0.82297000
    49  H          0.97080000       0.94660000       0.14980000
    50  H          0.02920000       0.44660000       0.85020000
