data_XUDPOF
_symmetry_space_group_name_H-M    'P1'
_symmetry_Int_Tables_number       1
loop_
_symmetry_equiv_pos_site_id
_symmetry_equiv_pos_as_xyz
1 x,y,z
_cell_length_a                   16.0553
_cell_length_b                   22.9885
_cell_length_c                   5.12901
_cell_angle_alpha                90.0
_cell_angle_beta                 90.0
_cell_angle_gamma                90.0
loop_
_atom_site_label
_atom_site_type_symbol
_atom_site_fract_x
_atom_site_fract_y
_atom_site_fract_z
     1  S          0.89219300       0.36419200       0.72408100
     2  S          0.10780700       0.63580800       0.72408100
     3  S          0.60780700       0.86419200       0.27591900
     4  S          0.39219300       0.13580800       0.27591900
     5  O          0.90266300       0.36982200       0.43337100
     6  O          0.09733700       0.63017800       0.43337100
     7  O          0.59733700       0.86982200       0.56662900
     8  O          0.40266300       0.13017800       0.56662900
     9  C          0.91504300       0.43400200       0.85709900
    10  C          0.08495700       0.56599800       0.85709900
    11  C          0.58495700       0.93400200       0.14290100
    12  C          0.41504300       0.06599800       0.14290100
    13  H          0.97303000       0.44417100       0.81859500
    14  H          0.02697000       0.55582900       0.81859500
    15  H          0.52697000       0.94417100       0.18140500
    16  H          0.47303000       0.05582900       0.18140500
    17  H          0.90675300       0.43315000       0.04635200
    18  H          0.09324700       0.56685000       0.04635200
    19  H          0.59324700       0.93315000       0.95364800
    20  H          0.40675300       0.06685000       0.95364800
    21  H          0.87791200       0.46306700       0.77947300
    22  H          0.12208800       0.53693300       0.77947300
    23  H          0.62208800       0.96306700       0.22052700
    24  H          0.37791200       0.03693300       0.22052700
    25  C          0.78291300       0.36439200       0.78962110
    26  C          0.21708700       0.63560800       0.78962110
    27  C          0.71708700       0.86439200       0.21037890
    28  C          0.28291300       0.13560800       0.21037890
    29  H          0.75742800       0.39876700       0.70961400
    30  H          0.24257200       0.60123300       0.70961400
    31  H          0.74257200       0.89876700       0.29038600
    32  H          0.25742800       0.10123300       0.29038600
    33  H          0.77376000       0.36533700      -0.02151700
    34  H          0.22624000       0.63466300      -0.02151700
    35  H          0.72624000       0.86533700       0.02151700
    36  H          0.27376000       0.13466300       0.02151700
    37  H          0.75760200       0.32917000       0.71672100
    38  H          0.24239800       0.67083000       0.71672100
    39  H          0.74239800       0.82917000       0.28327900
    40  H          0.25760200       0.17083000       0.28327900
    41  O          0.64495300       0.72936200       0.07241100
    42  O          0.35504700       0.27063800       0.07241100
    43  O          0.85504700       0.22936200       0.92758900
    44  O          0.14495300       0.77063800       0.92758900
    45  O          0.85174300       0.74404200       0.41996130
    46  O          0.14825700       0.25595800       0.41996130
    47  O          0.64825700       0.24404200       0.58003870
    48  O          0.35174300       0.75595800       0.58003870
    49  O          0.94248300       0.72364200       0.73087160
    50  O          0.05751700       0.27635800       0.73087160
    51  O          0.55751700       0.22364200       0.26912840
    52  O          0.44248300       0.77635800       0.26912840
    53  N          0.51255300       0.77042200       0.77937140
    54  N          0.48744700       0.22957800       0.77937140
    55  N          0.98744700       0.27042200       0.22062860
    56  N          0.01255300       0.72957800       0.22062860
    57  N          0.71846300       0.71865200       0.70030900
    58  N          0.28153700       0.28134800       0.70030900
    59  N          0.78153700       0.21865200       0.29969100
    60  N          0.21846300       0.78134800       0.29969100
    61  C          0.57027300       0.72785200       0.66668120
    62  C          0.42972700       0.27214800       0.66668120
    63  C          0.92972700       0.22785200       0.33331880
    64  C          0.07027300       0.77214800       0.33331880
    65  H          0.58632400       0.74128000       0.48817600
    66  H          0.41367600       0.25872000       0.48817600
    67  H          0.91367600       0.24128000       0.51182400
    68  H          0.08632400       0.75872000       0.51182400
    69  C          0.64876300       0.72499200       0.83494100
    70  C          0.35123700       0.27500800       0.83494100
    71  C          0.85123700       0.22499200       0.16505900
    72  C          0.14876300       0.77500800       0.16505900
    73  C          0.79906300       0.71334200       0.83480100
    74  C          0.20093700       0.28665800       0.83480100
    75  C          0.70093700       0.21334200       0.16519900
    76  C          0.29906300       0.78665800       0.16519900
    77  H          0.80056100       0.74201200      -0.01866000
    78  H          0.19943900       0.25798800      -0.01866000
    79  H          0.69943900       0.24201200       0.01866000
    80  H          0.30056100       0.75798800       0.01866000
    81  C          0.87006300       0.72769200       0.64406130
    82  C          0.12993700       0.27230800       0.64406130
    83  C          0.62993700       0.22769200       0.35593870
    84  C          0.37006300       0.77230800       0.35593870
    85  C          0.52801200       0.66921200       0.64321130
    86  C          0.47198800       0.33078800       0.64321130
    87  C          0.97198800       0.16921200       0.35678870
    88  C          0.02801200       0.83078800       0.35678870
    89  H          0.56765600       0.64181000       0.56088000
    90  H          0.43234400       0.35819000       0.56088000
    91  H          0.93234400       0.14181000       0.43912000
    92  H          0.06765600       0.85819000       0.43912000
    93  H          0.47997400       0.67337400       0.52363800
    94  H          0.52002600       0.32662600       0.52363800
    95  H          0.02002600       0.17337400       0.47636200
    96  H          0.97997400       0.82662600       0.47636200
    97  C          0.49636200       0.64147200       0.90106150
    98  C          0.50363800       0.35852800       0.90106150
    99  C          0.00363800       0.14147200       0.09893850
   100  C         -0.00363800       0.85852800       0.09893850
   101  H          0.54410300       0.63539000       0.02014700
   102  H          0.45589700       0.36461000       0.02014700
   103  H          0.95589700       0.13539000      -0.02014700
   104  H          0.04410300       0.86461000      -0.02014700
   105  H          0.45701800       0.66852200      -0.01299000
   106  H          0.54298200       0.33147800      -0.01299000
   107  H          0.04298200       0.16852200       0.01299000
   108  H          0.95701800       0.83147800       0.01299000
   109  C          0.80935300       0.65041200       0.95099900
   110  C          0.19064700       0.34958800       0.95099900
   111  C          0.69064700       0.15041200       0.04900100
   112  C          0.30935300       0.84958800       0.04900100
   113  H          0.86461800       0.64734900       0.03549100
   114  H          0.13538200       0.35265100       0.03549100
   115  H          0.63538200       0.14734900       0.96450900
   116  H          0.36461800       0.85265100       0.96450900
   117  H          0.76644800       0.64423800       0.08684100
   118  H          0.23355200       0.35576200       0.08684100
   119  H          0.73355200       0.14423800       0.91315900
   120  H          0.26644800       0.85576200       0.91315900
   121  C          0.80154200       0.60302200       0.74703700
   122  C          0.19845800       0.39697800       0.74703700
   123  C          0.69845800       0.10302200       0.25296300
   124  C          0.30154200       0.89697800       0.25296300
   125  C          0.72674200       0.57293200       0.73403700
   126  C          0.27325800       0.42706800       0.73403700
   127  C          0.77325800       0.07293200       0.26596300
   128  C          0.22674200       0.92706800       0.26596300
   129  H          0.68313600       0.58185000       0.85267500
   130  H          0.31686400       0.41815000       0.85267500
   131  H          0.81686400       0.08185000       0.14732500
   132  H          0.18313600       0.91815000       0.14732500
   133  C          0.85433300       0.54555200       0.38257700
   134  C          0.14566700       0.45444800       0.38257700
   135  C          0.64566700       0.04555200       0.61742300
   136  C          0.35433300       0.95444800       0.61742300
   137  H          0.89847700       0.53622200       0.26653100
   138  H          0.10152300       0.46377800       0.26653100
   139  H          0.60152300       0.03622200       0.73346900
   140  H          0.39847700       0.96377800       0.73346900
   141  C          0.86444200       0.58974200       0.56937800
   142  C          0.13555800       0.41025800       0.56937800
   143  C          0.63555800       0.08974200       0.43062200
   144  C          0.36444200       0.91025800       0.43062200
   145  H          0.91516800       0.61098200       0.57464000
   146  H          0.08483200       0.38901800       0.57464000
   147  H          0.58483200       0.11098200       0.42536000
   148  H          0.41516800       0.88901800       0.42536000
   149  C          0.77784300       0.51505200       0.36872700
   150  C          0.22215700       0.48494800       0.36872700
   151  C          0.72215700       0.01505200       0.63127300
   152  C          0.27784300       0.98494800       0.63127300
   153  H          0.76961600       0.48560000       0.24134800
   154  H          0.23038400       0.51440000       0.24134800
   155  H          0.73038400       0.98560000       0.75865200
   156  H          0.26961600       0.01440000       0.75865200
   157  C          0.71529200       0.52881200       0.54357800
   158  C          0.28470800       0.47118800       0.54357800
   159  C          0.78470800       0.02881200       0.45642200
   160  C          0.21529200       0.97118800       0.45642200
   161  H          0.66387000       0.50842900       0.53614800
   162  H          0.33613000       0.49157100       0.53614800
   163  H          0.83613000       0.00842900       0.46385200
   164  H          0.16387000       0.99157100       0.46385200
   165  C          0.45338200       0.58400200       0.85354180
   166  C          0.54661800       0.41599800       0.85354180
   167  C          0.04661800       0.08400200       0.14645820
   168  C          0.95338200       0.91599800       0.14645820
   169  H          0.49320200       0.55682500       0.77054600
   170  H          0.50679800       0.44317500       0.77054600
   171  H          0.00679800       0.05682500       0.22945400
   172  H         -0.00679800       0.94317500       0.22945400
   173  H          0.40656800       0.59006000       0.73088400
   174  H          0.59343200       0.40994000       0.73088400
   175  H          0.09343200       0.09006000       0.26911600
   176  H          0.90656800       0.90994000       0.26911600
   177  C          0.41987300       0.55634200       0.10512000
   178  C          0.58012700       0.44365800       0.10512000
   179  C          0.08012700       0.05634200       0.89488000
   180  C          0.91987300       0.94365800       0.89488000
   181  H          0.39629300       0.51802000       0.06554200
   182  H          0.60370700       0.48198000       0.06554200
   183  H          0.10370700       0.01802000       0.93445800
   184  H          0.89629300       0.98198000       0.93445800
   185  H          0.37651700       0.58133300       0.17956000
   186  H          0.62348300       0.41866700       0.17956000
   187  H          0.12348300       0.08133300       0.82044000
   188  H          0.87651700       0.91866700       0.82044000
   189  H          0.46542500       0.55200900       0.23082800
   190  H          0.53457500       0.44799100       0.23082800
   191  H          0.03457500       0.05200900       0.76917200
   192  H          0.96542500       0.94799100       0.76917200
   193  H          0.50620000       0.76781400       0.95070000
   194  H          0.49380000       0.23218600       0.95070000
   195  H         -0.00620000       0.26781400       0.04930000
   196  H          0.00620000       0.73218600       0.04930000
   197  H          0.72320000       0.71981500       0.53070000
   198  H          0.27680000       0.28018500       0.53070000
   199  H          0.77680000       0.21981500       0.46930000
   200  H          0.22320000       0.78018500       0.46930000
   201  H          0.53230000       0.80651900       0.73990000
   202  H          0.46770000       0.19348100       0.73990000
   203  H          0.96770000       0.30651900       0.26010000
   204  H          0.03230000       0.69348100       0.26010000
   205  H          0.46020000       0.76671400       0.71870000
   206  H          0.53980000       0.23328600       0.71870000
   207  H          0.03980000       0.26671400       0.28130000
   208  H          0.96020000       0.73328600       0.28130000
