data_XUFYOP
_symmetry_space_group_name_H-M    'P1'
_symmetry_Int_Tables_number       1
loop_
_symmetry_equiv_pos_site_id
_symmetry_equiv_pos_as_xyz
1 x,y,z
_cell_length_a                   6.20206
_cell_length_b                   14.683915
_cell_length_c                   29.6393
_cell_angle_alpha                90.0
_cell_angle_beta                 90.0
_cell_angle_gamma                90.0
loop_
_atom_site_label
_atom_site_type_symbol
_atom_site_fract_x
_atom_site_fract_y
_atom_site_fract_z
     1  F          0.17502000       0.49291110       0.59888500
     2  F          0.32498000       0.50708890       0.09888500
     3  F          0.82498000      -0.00708890       0.90111500
     4  F          0.67502000       0.00708890       0.40111500
     5  F          0.85283000       0.43586110       0.53087500
     6  F          0.64717000       0.56413890       0.03087500
     7  F          0.14717000       0.93586110       0.96912500
     8  F          0.35283000       0.06413890       0.46912500
     9  O          0.45133000       0.06309100       0.79685500
    10  O          0.04867000       0.93690900       0.29685500
    11  O          0.54867000       0.56309100       0.70314500
    12  O          0.95133000       0.43690900       0.20314500
    13  O          0.78863000       0.13515110       0.80432500
    14  O          0.71137000       0.86484890       0.30432500
    15  O          0.21137000       0.63515110       0.69567500
    16  O          0.28863000       0.36484890       0.19567500
    17  F          0.77823000       0.57129120       0.47247500
    18  F          0.72177000       0.42870880       0.97247500
    19  F          0.22177000       0.07129120       0.02752500
    20  F          0.27823000       0.92870880       0.52752500
    21  F          0.10573000       0.62599110       0.54016500
    22  F          0.39427000       0.37400890       0.04016500
    23  F          0.89427000       0.12599110       0.95983500
    24  F          0.60573000       0.87400890       0.45983500
    25  F          0.40893000       0.67043110       0.47811500
    26  F          0.09107000       0.32956890       0.97811500
    27  F          0.59107000       0.17043110       0.02188500
    28  F          0.90893000       0.82956890       0.52188500
    29  N          0.59383000       0.15195130       0.73107600
    30  N          0.90617000       0.84804870       0.23107600
    31  N          0.40617000       0.65195130       0.76892400
    32  N          0.09383000       0.34804870       0.26892400
    33  C          0.64864000       0.16432160       0.83723700
    34  C          0.85136000       0.83567840       0.33723700
    35  C          0.35136000       0.66432160       0.66276300
    36  C          0.14864000       0.33567840       0.16276300
    37  C          0.77064000      -0.00596160       0.75197700
    38  C          0.72936000       0.00596160       0.25197700
    39  C          0.22936000       0.49403840       0.74802300
    40  C          0.27064000       0.50596160       0.24802300
    41  C          0.68774000       0.22675160       0.87094800
    42  C          0.81226000       0.77324840       0.37094800
    43  C          0.31226000       0.72675160       0.62905200
    44  C          0.18774000       0.27324840       0.12905200
    45  H          0.82338200       0.25623700       0.87368300
    46  H          0.67661800       0.74376300       0.37368300
    47  H          0.17661800       0.75623700       0.62631700
    48  H          0.32338200       0.24376300       0.12631700
    49  C          0.45084000       0.12095150       0.83314700
    50  C          0.04916000       0.87904850       0.33314700
    51  C          0.54916000       0.62095150       0.66685300
    52  C          0.95084000       0.37904850       0.16685300
    53  C          0.71004000       0.23984170       0.66760800
    54  C          0.78996000       0.76015830       0.16760800
    55  C          0.28996000       0.73984170       0.83239200
    56  C          0.21004000       0.26015830       0.33239200
    57  H          0.81753900       0.25222300       0.64561600
    58  H          0.68246100       0.74777700       0.14561600
    59  H          0.18246100       0.75222300       0.85438400
    60  H          0.31753900       0.24777700       0.35438400
    61  C          0.74334000       0.17329160       0.69967800
    62  C          0.75666000       0.82670840       0.19967800
    63  C          0.25666000       0.67329160       0.80032200
    64  C          0.24334000       0.32670840       0.30032200
    65  H          0.87643200       0.14125400       0.69967400
    66  H          0.62356800       0.85874600       0.19967400
    67  H          0.12356800       0.64125400       0.80032600
    68  H          0.37643200       0.35874600       0.30032600
    69  C          0.51994000       0.45895160       0.56811800
    70  C         -0.01994000       0.54104840       0.06811800
    71  C          0.48006000       0.95895160       0.93188200
    72  C          0.01994000       0.04104840       0.43188200
    73  C          0.66524000       0.48216170       0.53418800
    74  C          0.83476000       0.51783830       0.03418800
    75  C          0.33476000       0.98216170       0.96581200
    76  C          0.16524000       0.01783830       0.46581200
    77  C          0.51714000       0.28895170       0.66763800
    78  C         -0.01714000       0.71104830       0.16763800
    79  C          0.48286000       0.78895170       0.83236200
    80  C          0.01714000       0.21104830       0.33236200
    81  C          0.66514000       0.93973840       0.72018700
    82  C          0.83486000       0.06026160       0.22018700
    83  C          0.33486000       0.43973840       0.77981300
    84  C          0.16514000       0.56026160       0.27981300
    85  H          0.52393600       0.95606600       0.71075000
    86  H          0.97606400       0.04393400       0.21075000
    87  H          0.47606400       0.45606600       0.78925000
    88  H          0.02393600       0.54393400       0.28925000
    89  C          0.40574000       0.19678170       0.73034800
    90  C          0.09426000       0.80321830       0.23034800
    91  C          0.59426000       0.69678170       0.76965200
    92  C          0.90574000       0.30321830       0.26965200
    93  H          0.29702000       0.18087200       0.75150300
    94  H          0.20298000       0.81912800       0.25150300
    95  H          0.70298000       0.68087200       0.74849700
    96  H          0.79702000       0.31912800       0.24849700
    97  C         -0.02136000       0.96809830       0.76427800
    98  C          0.52136000       0.03190170       0.26427800
    99  C          0.02136000       0.46809830       0.73572200
   100  C          0.47864000       0.53190170       0.23572200
   101  H          0.05598400       0.00382800       0.78552300
   102  H          0.44401600      -0.00382800       0.28552300
   103  H          0.94401600       0.50382800       0.71447700
   104  H          0.55598400       0.49617200       0.21447700
   105  C          0.32224000       0.20151170       0.89682800
   106  C          0.17776000       0.79848830       0.39682800
   107  C          0.67776000       0.70151170       0.60317200
   108  C          0.82224000       0.29848830       0.10317200
   109  H          0.21060600       0.21513700       0.91772000
   110  H          0.28939400       0.78486300       0.41772000
   111  H          0.78939400       0.71513700       0.58228000
   112  H          0.71060600       0.28486300       0.08228000
   113  C          0.51965000       0.24484170       0.90085800
   114  C         -0.01965000       0.75515830       0.40085800
   115  C          0.48035000       0.74484170       0.59914200
   116  C          0.01965000       0.25515830       0.09914200
   117  H          0.54083300       0.28770300       0.92444700
   118  H          0.95916700       0.71229700       0.42444700
   119  H          0.45916700       0.78770300       0.57555300
   120  H          0.04083300       0.21229700       0.07555300
   121  C          0.57394000       0.38599170       0.59991800
   122  C          0.92606000       0.61400830       0.09991800
   123  C          0.42606000       0.88599170       0.90008200
   124  C          0.07394000       0.11400830       0.40008200
   125  H          0.70041500       0.35174800       0.59368600
   126  H          0.79958500       0.64825200       0.09368600
   127  H          0.29958500       0.85174800       0.90631400
   128  H          0.20041500       0.14825200       0.40631400
   129  C          0.28414000       0.13806160       0.86256800
   130  C          0.21586000       0.86193840       0.36256800
   131  C          0.71586000       0.63806160       0.63743200
   132  C          0.78414000       0.36193840       0.13743200
   133  H          0.14899900       0.10809900       0.85971600
   134  H          0.35100100       0.89190100       0.35971600
   135  H          0.85100100       0.60809900       0.64028400
   136  H          0.64899900       0.39190100       0.14028400
   137  C          0.33034000       0.50957170       0.56814800
   138  C          0.16966000       0.49042830       0.06814800
   139  C          0.66966000       0.00957170       0.93185200
   140  C          0.83034000       0.99042830       0.43185200
   141  C          0.36584000       0.26522170       0.69978800
   142  C          0.13416000       0.73477830       0.19978800
   143  C          0.63416000       0.76522170       0.80021200
   144  C          0.86584000       0.23477830       0.30021200
   145  H          0.23206100       0.29669000       0.70079400
   146  H          0.26793900       0.70331000       0.20079400
   147  H          0.76793900       0.79669000       0.79920600
   148  H          0.73206100       0.20331000       0.29920600
   149  C          0.46405000       0.36316180       0.63636800
   150  C          0.03595000       0.63683820       0.13636800
   151  C          0.53595000       0.86316180       0.86363200
   152  C          0.96405000       0.13683820       0.36363200
   153  H          0.33895000       0.39804800       0.64297100
   154  H          0.16105000       0.60195200       0.14297100
   155  H          0.66105000       0.89804800       0.85702900
   156  H          0.83895000       0.10195200       0.35702900
   157  C          0.96565000       0.83819820       0.71516900
   158  C          0.53435000       0.16180180       0.21516900
   159  C          0.03435000       0.33819820       0.78483100
   160  C          0.46565000       0.66180180       0.28483100
   161  H          0.03115600       0.78513600       0.70300200
   162  H          0.46884400       0.21486400       0.20300200
   163  H          0.96884400       0.28513600       0.79699800
   164  H          0.53115600       0.71486400       0.29699800
   165  C          0.29054000       0.57879180       0.53808900
   166  C          0.20946000       0.42120820       0.03808900
   167  C          0.70946000       0.07879180       0.96191100
   168  C          0.79054000       0.92120820       0.46191100
   169  C          0.62955000       0.55142180       0.50385800
   170  C          0.87045000       0.44857820       0.00385800
   171  C          0.37045000       0.05142180      -0.00385800
   172  C          0.12955000       0.94857820       0.49614200
   173  C          0.76075000       0.86278830       0.70202800
   174  C          0.73925000       0.13721170       0.20202800
   175  C          0.23925000       0.36278830       0.79797200
   176  C          0.26075000       0.63721170       0.29797200
   177  H          0.68494300       0.82699700       0.68053100
   178  H          0.81505700       0.17300300       0.18053100
   179  H          0.31505700       0.32699700       0.81946900
   180  H          0.18494300       0.67300300       0.31946900
   181  C          0.07504000       0.89104810       0.74606900
   182  C          0.42496000       0.10895190       0.24606900
   183  C          0.92496000       0.39104810       0.75393100
   184  C          0.57504000       0.60895190       0.25393100
   185  H          0.21696500       0.87467200       0.75493400
   186  H          0.28303500       0.12532800       0.25493400
   187  H          0.78303500       0.37467200       0.74506600
   188  H          0.71696500       0.62532800       0.24506600
   189  C          0.44175000       0.60055180       0.50635900
   190  C          0.05825000       0.39944820       0.00635900
   191  C          0.55825000       0.10055180       0.99364100
   192  C          0.94175000       0.89944820       0.49364100
   193  B          0.65605000       0.08030190       0.77329900
   194  B          0.84395000       0.91969810       0.27329900
   195  B          0.34395000       0.58030190       0.72670100
   196  B          0.15605000       0.41969810       0.22670100
   197  C          0.36644000       0.42960180       0.41789800
   198  C          0.13356000       0.57039820       0.91789800
   199  C          0.63356000       0.92960180       0.08210200
   200  C          0.86644000       0.07039820       0.58210200
   201  C          0.56724000       0.41652190       0.39759800
   202  C          0.93276000       0.58347810       0.89759800
   203  C          0.43276000       0.91652190       0.10240200
   204  C          0.06724000       0.08347810       0.60240200
   205  C          0.29345000       0.36542000       0.44894800
   206  C          0.20655000       0.63458000       0.94894800
   207  C          0.70655000       0.86542000       0.05105200
   208  C          0.79345000       0.13458000       0.55105200
   209  H          0.15852700       0.37469800       0.46344200
   210  H          0.34147300       0.62530200       0.96344200
   211  H          0.84147300       0.87469800       0.03655800
   212  H          0.65852700       0.12530200       0.53655800
   213  C          0.68465000       0.33902000       0.40874900
   214  C          0.81535000       0.66098000       0.90874900
   215  C          0.31535000       0.83902000       0.09125100
   216  C          0.18465000       0.16098000       0.59125100
   217  H          0.82152800       0.32961900       0.39513400
   218  H          0.67847200       0.67038100       0.89513400
   219  H          0.17847200       0.82961900       0.10486600
   220  H          0.32152800       0.17038100       0.60486600
   221  C          0.41206000       0.28892000       0.45912900
   222  C          0.08794000       0.71108000       0.95912900
   223  C          0.58794000       0.78892000       0.04087100
   224  C          0.91206000       0.21108000       0.54087100
   225  H          0.35804500       0.24557900       0.48005800
   226  H          0.14195500       0.75442100       0.98005800
   227  H          0.64195500       0.74557900       0.01994200
   228  H          0.85804500       0.25442100       0.51994200
   229  C          0.60796000       0.27562000       0.43896900
   230  C          0.89204000       0.72438000       0.93896900
   231  C          0.39204000       0.77562000       0.06103100
   232  C          0.10796000       0.22438000       0.56103100
   233  H          0.69058100       0.22288400       0.44577500
   234  H          0.80941900       0.77711600       0.94577500
   235  H          0.30941900       0.72288400       0.05422500
   236  H          0.19058100       0.27711600       0.55422500
   237  C          0.65315000       0.48392000       0.36397900
   238  C          0.84685000       0.51608000       0.86397900
   239  C          0.34685000       0.98392000       0.13602100
   240  C          0.15315000       0.01608000       0.63602100
   241  H          0.54887600       0.49138300       0.33939600
   242  H          0.95112400       0.50861700       0.83939600
   243  H          0.45112400      -0.00861700       0.16060400
   244  H          0.04887600       0.00861700       0.66060400
   245  H          0.78997800       0.46153900       0.35170300
   246  H          0.71002200       0.53846100       0.85170300
   247  H          0.21002200       0.96153900       0.14829700
   248  H          0.28997800       0.03846100       0.64829700
   249  H          0.67649300       0.54262000       0.37886700
   250  H          0.82350700       0.45738000       0.87886700
   251  H          0.32350700       0.04262000       0.12113300
   252  H          0.17649300       0.95738000       0.62113300
   253  C          0.23066000       0.51082000       0.40647100
   254  C          0.26934000       0.48918000       0.90647100
   255  C          0.76934000       0.01082000       0.09352900
   256  C          0.73066000       0.98918000       0.59352900
   257  H          0.31618500       0.56636600       0.41014300
   258  H          0.18381500       0.43363400       0.91014300
   259  H          0.68381500       0.06636600       0.08985700
   260  H          0.81618500       0.93363400       0.58985700
   261  H          0.10551200       0.51296500       0.42663800
   262  H          0.39448800       0.48703500       0.92663800
   263  H          0.89448800       0.01296500       0.07336200
   264  H          0.60551200       0.98703500       0.57336200
   265  H          0.18129600       0.50603400       0.37513900
   266  H          0.31870400       0.49396600       0.87513900
   267  H          0.81870400       0.00603400       0.12486100
   268  H          0.68129600      -0.00603400       0.62486100
