data_XUGRIA
_symmetry_space_group_name_H-M    'P1'
_symmetry_Int_Tables_number       1
loop_
_symmetry_equiv_pos_site_id
_symmetry_equiv_pos_as_xyz
1 x,y,z
_cell_length_a                   6.527913
_cell_length_b                   12.9353
_cell_length_c                   12.8493
_cell_angle_alpha                90.0
_cell_angle_beta                 90.0
_cell_angle_gamma                90.0
loop_
_atom_site_label
_atom_site_type_symbol
_atom_site_fract_x
_atom_site_fract_y
_atom_site_fract_z
     1  Cl         0.01137700       0.25517300       0.25000000
     2  Cl        -0.01137700       0.74482700       0.75000000
     3  Cl        -0.01137700       0.75517300       0.25000000
     4  Cl         0.01137700       0.24482700       0.75000000
     5  Cl         0.48021700       0.47725400       0.25000000
     6  Cl         0.51978300       0.52274600       0.75000000
     7  Cl         0.51978300       0.97725400       0.25000000
     8  Cl         0.48021700       0.02274600       0.75000000
     9  Cl         0.42387700       0.25000000       0.00000000
    10  Cl         0.57612300       0.75000000       0.50000000
    11  Cl         0.57612300       0.75000000       0.00000000
    12  Cl         0.42387700       0.25000000       0.50000000
    13  N          0.47763000       0.72597130       0.25000000
    14  N          0.52237000       0.27402870       0.75000000
    15  N          0.52237000       0.22597130       0.25000000
    16  N          0.47763000       0.77402870       0.75000000
    17  H          0.53230000       0.74200000       0.31100000
    18  H          0.46770000       0.25800000       0.81100000
    19  H          0.46770000       0.24200000       0.18900000
    20  H          0.53230000       0.75800000       0.68900000
    21  H          0.46770000       0.25800000       0.68900000
    22  H          0.53230000       0.74200000       0.18900000
    23  H          0.53230000       0.75800000       0.81100000
    24  H          0.46770000       0.24200000       0.31100000
    25  H          0.35270000       0.73800000       0.25000000
    26  H          0.64730000       0.26200000       0.75000000
    27  H          0.64730000       0.23800000       0.25000000
    28  H          0.35270000       0.76200000       0.75000000
    29  H          0.48120000       0.65520000       0.25000000
    30  H          0.51880000       0.34480000       0.75000000
    31  H          0.51880000       0.15520000       0.25000000
    32  H          0.48120000       0.84480000       0.75000000
    33  O          0.05412000       0.01909900       0.25000000
    34  O          0.94588000       0.98090100       0.75000000
    35  O          0.94588000       0.51909900       0.25000000
    36  O          0.05412000       0.48090100       0.75000000
    37  H          0.03550000       0.09070000       0.25000000
    38  H          0.96450000       0.90930000       0.75000000
    39  H          0.96450000       0.59070000       0.25000000
    40  H          0.03550000       0.40930000       0.75000000
    41  H          0.18570000      -0.00470000       0.25000000
    42  H          0.81430000       0.00470000       0.75000000
    43  H          0.81430000       0.49530000       0.25000000
    44  H          0.18570000       0.50470000       0.75000000
    45  N          0.11603160       0.43159700       0.06609700
    46  N          0.88396840       0.56840300       0.56609700
    47  N          0.88396840       0.93159700       0.43390300
    48  N          0.11603160       0.06840300       0.93390300
    49  N          0.88396840       0.56840300       0.93390300
    50  N          0.11603160       0.43159700       0.43390300
    51  N          0.11603160       0.06840300       0.56609700
    52  N          0.88396840       0.93159700       0.06609700
    53  H          0.08090000       0.45330000       0.13020000
    54  H          0.91910000       0.54670000       0.63020000
    55  H          0.91910000       0.95330000       0.36980000
    56  H          0.08090000       0.04670000       0.86980000
    57  H          0.91910000       0.54670000       0.86980000
    58  H          0.08090000       0.45330000       0.36980000
    59  H          0.08090000       0.04670000       0.63020000
    60  H          0.91910000       0.95330000       0.13020000
    61  H          0.20470000       0.37880000       0.07320000
    62  H          0.79530000       0.62120000       0.57320000
    63  H          0.79530000       0.87880000       0.42680000
    64  H          0.20470000       0.12120000       0.92680000
    65  H          0.79530000       0.62120000       0.92680000
    66  H          0.20470000       0.37880000       0.42680000
    67  H          0.20470000       0.12120000       0.57320000
    68  H          0.79530000       0.87880000       0.07320000
    69  C          0.92948000       0.39453900       0.01062100
    70  C          0.07052000       0.60546100       0.51062100
    71  C          0.07052000       0.89453900       0.48937900
    72  C          0.92948000       0.10546100      -0.01062100
    73  C          0.07052000       0.60546100      -0.01062100
    74  C          0.92948000       0.39453900       0.48937900
    75  C          0.92948000       0.10546100       0.51062100
    76  C          0.07052000       0.89453900       0.01062100
    77  H          0.86220000       0.34190000       0.05210000
    78  H          0.13780000       0.65810000       0.55210000
    79  H          0.13780000       0.84190000       0.44790000
    80  H          0.86220000       0.15810000       0.94790000
    81  H          0.13780000       0.65810000       0.94790000
    82  H          0.86220000       0.34190000       0.44790000
    83  H          0.86220000       0.15810000       0.55210000
    84  H          0.13780000       0.84190000       0.05210000
    85  H          0.96890000       0.36360000       0.94480000
    86  H          0.03110000       0.63640000       0.44480000
    87  H          0.03110000       0.86360000       0.55520000
    88  H          0.96890000       0.13640000       0.05520000
    89  H          0.03110000       0.63640000       0.05520000
    90  H          0.96890000       0.36360000       0.55520000
    91  H          0.96890000       0.13640000       0.44480000
    92  H          0.03110000       0.86360000       0.94480000
    93  C          0.21772000       0.51759100       0.00914900
    94  C          0.78228000       0.48240900       0.50914900
    95  C          0.78228000       0.01759100       0.49085100
    96  C          0.21772000       0.98240900      -0.00914900
    97  C          0.78228000       0.48240900      -0.00914900
    98  C          0.21772000       0.51759100       0.49085100
    99  C          0.21772000       0.98240900       0.50914900
   100  C          0.78228000       0.01759100       0.00914900
   101  H          0.26990000       0.49210000       0.94330000
   102  H          0.73010000       0.50790000       0.44330000
   103  H          0.73010000      -0.00790000       0.55670000
   104  H          0.26990000       0.00790000       0.05670000
   105  H          0.73010000       0.50790000       0.05670000
   106  H          0.26990000       0.49210000       0.55670000
   107  H          0.26990000       0.00790000       0.44330000
   108  H          0.73010000      -0.00790000       0.94330000
   109  H          0.33290000       0.54260000       0.04960000
   110  H          0.66710000       0.45740000       0.54960000
   111  H          0.66710000       0.04260000       0.45040000
   112  H          0.33290000       0.95740000       0.95040000
   113  H          0.66710000       0.45740000       0.95040000
   114  H          0.33290000       0.54260000       0.45040000
   115  H          0.33290000       0.95740000       0.54960000
   116  H          0.66710000       0.04260000       0.04960000
