data_XUHNUJ
_symmetry_space_group_name_H-M    'P1'
_symmetry_Int_Tables_number       1
loop_
_symmetry_equiv_pos_site_id
_symmetry_equiv_pos_as_xyz
1 x,y,z
_cell_length_a                   13.758815
_cell_length_b                   5.38716
_cell_length_c                   18.7082
_cell_angle_alpha                90.0
_cell_angle_beta                 104.3355
_cell_angle_gamma                90.0
loop_
_atom_site_label
_atom_site_type_symbol
_atom_site_fract_x
_atom_site_fract_y
_atom_site_fract_z
     1  I          0.90153284       0.09025400       0.64868210
     2  I          0.59846716       0.09025400       0.85131790
     3  I          0.09846716       0.90974600       0.35131790
     4  I          0.40153284       0.90974600       0.14868210
     5  C          0.93417000       0.88024000       0.74985830
     6  C          0.56583000       0.88024000       0.75014170
     7  C          0.06583000       0.11976000       0.25014170
     8  C          0.43417000       0.11976000       0.24985830
     9  C          0.94828000       0.04265000       0.81904860
    10  C          0.55172000       0.04265000       0.68095140
    11  C          0.05172000       0.95735000       0.18095140
    12  C          0.44828000       0.95735000       0.31904860
    13  C          0.97658000       0.90305000       0.89391850
    14  C          0.52342000       0.90305000       0.60608150
    15  C          0.02342000       0.09695000       0.10608150
    16  C          0.47658000       0.09695000       0.39391850
    17  C          0.97788000       0.06295000       0.96230860
    18  C          0.52212000       0.06295000       0.53769140
    19  C          0.02212000       0.93705000       0.03769140
    20  C          0.47788000       0.93705000       0.46230860
    21  F          0.01772000       0.74625000       0.75580890
    22  F          0.48228000       0.74625000       0.74419110
    23  F          0.98228000       0.25375000       0.24419110
    24  F          0.51772000       0.25375000       0.25580890
    25  F          0.85988000       0.71825000       0.74869880
    26  F          0.64012000       0.71825000       0.75130120
    27  F          0.14012000       0.28175000       0.25130120
    28  F          0.35988000       0.28175000       0.24869880
    29  F          0.86411850       0.16844000       0.81489900
    30  F          0.63588150       0.16844000       0.68510100
    31  F          0.13588150       0.83156000       0.18510100
    32  F          0.36411850       0.83156000       0.31489900
    33  F          0.02114160       0.20564000       0.81852900
    34  F          0.47885840       0.20564000       0.68147100
    35  F          0.97885840       0.79436000       0.18147100
    36  F          0.52114160       0.79436000       0.31852900
    37  F          0.06712170       0.80256000       0.90126900
    38  F          0.43287830       0.80256000       0.59873100
    39  F          0.93287830       0.19744000       0.09873100
    40  F          0.56712170       0.19744000       0.40126900
    41  F          0.91154810       0.71826000       0.89205900
    42  F          0.58845190       0.71826000       0.60794100
    43  F          0.08845190       0.28174000       0.10794100
    44  F          0.41154810       0.28174000       0.39205900
    45  F          0.03071190       0.26903000       0.95981900
    46  F          0.46928810       0.26903000       0.54018100
    47  F          0.96928810       0.73097000       0.04018100
    48  F          0.53071190       0.73097000       0.45981900
    49  F          0.88390850       0.12955000       0.95943900
    50  F          0.61609150       0.12955000       0.54056100
    51  F          0.11609150       0.87045000       0.04056100
    52  F          0.38390850       0.87045000       0.45943900
    53  C          0.25000000       0.36808000       0.75000000
    54  C          0.75000000       0.63192000       0.25000000
    55  H          0.29561900       0.48550000       0.73780000
    56  H          0.20438100       0.48550000       0.76220000
    57  H          0.70438100       0.51450000       0.26220000
    58  H          0.79561900       0.51450000       0.23780000
    59  C          0.28633000       0.21306000       0.81879840
    60  C          0.21367000       0.21306000       0.68120160
    61  C          0.71367000       0.78694000       0.18120160
    62  C          0.78633000       0.78694000       0.31879840
    63  H          0.24020000       0.09160000       0.82180000
    64  H          0.25980000       0.09160000       0.67820000
    65  H          0.75980000       0.90840000       0.17820000
    66  H          0.74020000       0.90840000       0.32180000
    67  H          0.34020000       0.11460000       0.81280000
    68  H          0.15980000       0.11460000       0.68720000
    69  H          0.65980000       0.88540000       0.18720000
    70  H          0.84020000       0.88540000       0.31280000
    71  C          0.31312000       0.36575000       0.88794850
    72  C          0.18688000       0.36575000       0.61205150
    73  C          0.68688000       0.63425000       0.11205150
    74  C          0.81312000       0.63425000       0.38794850
    75  C          0.38093000       0.55807000       0.89726830
    76  C          0.11907000       0.55807000       0.60273170
    77  C          0.61907000       0.44193000       0.10273170
    78  C          0.88093000       0.44193000       0.39726830
    79  H          0.41330000       0.60060000       0.86318200
    80  H          0.08670000       0.60060000       0.63681800
    81  H          0.58670000       0.39940000       0.13681800
    82  H          0.91330000       0.39940000       0.36318200
    83  C          0.40083000       0.69338000       0.96135810
    84  C          0.09917000       0.69338000       0.53864190
    85  C          0.59917000       0.30662000       0.03864190
    86  C          0.90083000       0.30662000       0.46135810
    87  H          0.44630000       0.81760000       0.96480000
    88  H          0.05370000       0.81760000       0.53520000
    89  H          0.55370000       0.18240000       0.03520000
    90  H          0.94630000       0.18240000       0.46480000
    91  N          0.35822000       0.65476000       0.01595140
    92  N          0.14178000       0.65476000       0.48404860
    93  N          0.64178000       0.34524000       0.98404860
    94  N          0.85822000       0.34524000       0.51595140
    95  C          0.29483000       0.46839000       0.00766190
    96  C          0.20517000       0.46839000       0.49233810
    97  C          0.70517000       0.53161000      -0.00766190
    98  C          0.79483000       0.53161000       0.50766190
    99  H          0.26230000       0.44280000       0.04220000
   100  H          0.23770000       0.44280000       0.45780000
   101  H          0.73770000       0.55720000       0.95780000
   102  H          0.76230000       0.55720000       0.54220000
   103  C          0.27153000       0.31978000       0.94592810
   104  C          0.22847000       0.31978000       0.55407190
   105  C          0.72847000       0.68022000       0.05407190
   106  C          0.77153000       0.68022000       0.44592810
   107  H          0.22720000       0.19560000       0.94180000
   108  H          0.27280000       0.19560000       0.55820000
   109  H          0.77280000       0.80440000       0.05820000
   110  H          0.72720000       0.80440000       0.44180000
   111  H          0.05430000       0.81760000       0.53480000
   112  H          0.44570000       0.81760000       0.96520000
   113  H          0.94570000       0.18240000       0.46520000
   114  H          0.55430000       0.18240000       0.03480000
