data_XUKZIM
_symmetry_space_group_name_H-M    'P1'
_symmetry_Int_Tables_number       1
loop_
_symmetry_equiv_pos_site_id
_symmetry_equiv_pos_as_xyz
1 x,y,z
_cell_length_a                   10.3712
_cell_length_b                   12.4743
_cell_length_c                   15.5003
_cell_angle_alpha                67.5381
_cell_angle_beta                 84.3841
_cell_angle_gamma                80.44115
loop_
_atom_site_label
_atom_site_type_symbol
_atom_site_fract_x
_atom_site_fract_y
_atom_site_fract_z
     1  N          0.61892000       0.72082000       0.69504170
     2  N          0.38108000       0.27918000       0.30495830
     3  H          0.58530000       0.74730000       0.64920000
     4  H          0.41470000       0.25270000       0.35080000
     5  S          0.69145600       0.58393600       0.72909500
     6  S          0.30854400       0.41606400       0.27090500
     7  S          0.58654700       0.79805600       0.76152500
     8  S          0.41345300       0.20194400       0.23847500
     9  O          0.74252000       0.56905180       0.64529140
    10  O          0.25748000       0.43094820       0.35470860
    11  O          0.77517180       0.56672180       0.80219130
    12  O          0.22482820       0.43327820       0.19780870
    13  O          0.49612000       0.89659180       0.70966150
    14  O          0.50388000       0.10340820       0.29033850
    15  O          0.54972000       0.72484190       0.85385130
    16  O          0.45028000       0.27515810       0.14614870
    17  C          0.56583000       0.49722000       0.77553180
    18  C          0.43417000       0.50278000       0.22446820
    19  C          0.55143000       0.44162000       0.87132190
    20  C          0.44857000       0.55838000       0.12867810
    21  H          0.60850000       0.45080000       0.91160000
    22  H          0.39150000       0.54920000       0.08840000
    23  C          0.45273000       0.37233000       0.90802000
    24  C          0.54727000       0.62767000       0.09198000
    25  H          0.44190000       0.33250000       0.97360000
    26  H          0.55810000       0.66750000       0.02640000
    27  C          0.37073000       0.36223000       0.84772000
    28  C          0.62927000       0.63777000       0.15228000
    29  C          0.38353000       0.41893000       0.75192000
    30  C          0.61647000       0.58107000       0.24808000
    31  H          0.32460000       0.41140000       0.71200000
    32  H          0.67540000       0.58860000       0.28800000
    33  C          0.48253000       0.48622000       0.71511190
    34  C          0.51747000       0.51378000       0.28488810
    35  H          0.49390000       0.52460000       0.64940000
    36  H          0.50610000       0.47540000       0.35060000
    37  C          0.73443000       0.84682000       0.76608180
    38  C          0.26557000       0.15318000       0.23391820
    39  C          0.79803000       0.80333000       0.84964190
    40  C          0.20197000       0.19667000       0.15035810
    41  H          0.76480000       0.74440000       0.90280000
    42  H          0.23520000       0.25560000       0.09720000
    43  C          0.90993000       0.84623000       0.85502000
    44  C          0.09007000       0.15377000       0.14498000
    45  H          0.95420000       0.81800000       0.91190000
    46  H          0.04580000       0.18200000       0.08810000
    47  C          0.95643000       0.93052000       0.77672000
    48  C          0.04357000       0.06948000       0.22328000
    49  C          0.89673000       0.97183000       0.69242000
    50  C          0.10327000       0.02817000       0.30758000
    51  H          0.93240000       0.02820000       0.63880000
    52  H          0.06760000       0.97180000       0.36120000
    53  C          0.78393000       0.92983000       0.68756190
    54  C          0.21607000       0.07017000       0.31243810
    55  H          0.74040000       0.95770000       0.63030000
    56  H          0.25960000       0.04230000       0.36970000
    57  Cl         0.24477800       0.27788800       0.89303600
    58  Cl         0.75522200       0.72211200       0.10696400
    59  Cl         0.09553800       0.98685800       0.78386600
    60  Cl         0.90446200       0.01314200       0.21613400
    61  N          0.24632000       0.74402000       0.51179160
    62  N          0.75368000       0.25598000       0.48820840
    63  H          0.31030000       0.75630000       0.51920000
    64  H          0.68970000       0.24370000       0.48080000
    65  S          0.24750700       0.62756600       0.48549500
    66  S          0.75249300       0.37243400       0.51450500
    67  S          0.12301600       0.80349600       0.56167400
    68  S          0.87698400       0.19650400       0.43832600
    69  O          0.38362000       0.58481180       0.48019140
    70  O          0.61638000       0.41518820       0.51980860
    71  O          0.16002000       0.55321170       0.54772140
    72  O          0.83998000       0.44678830       0.45227860
    73  O          0.15239190       0.91781160       0.54373130
    74  O          0.84760810       0.08218840       0.45626870
    75  O          0.00557180       0.78712170       0.53038130
    76  O         -0.00557180       0.21287830       0.46961870
    77  C          0.18843000       0.68492000       0.37196180
    78  C          0.81157000       0.31508000       0.62803820
    79  C          0.26563000       0.75173000       0.30022000
    80  C          0.73437000       0.24827000       0.69978000
    81  H          0.34500000       0.77010000       0.31340000
    82  H          0.65500000       0.22990000       0.68660000
    83  C          0.22663000       0.79133000       0.20962000
    84  C          0.77337000       0.20867000       0.79038000
    85  H          0.27880000       0.83680000       0.15940000
    86  H          0.72120000       0.16320000       0.84060000
    87  C          0.11043000       0.76383000       0.19292000
    88  C          0.88957000       0.23617000       0.80708000
    89  C          0.03373000       0.69763000       0.26402000
    90  C          0.96627000       0.30237000       0.73598000
    91  H          0.95440000       0.67920000       0.25070000
    92  H          0.04560000       0.32080000       0.74930000
    93  C          0.07213000       0.65773000       0.35512000
    94  C          0.92787000       0.34227000       0.64488000
    95  H          0.01950000       0.61240000       0.40510000
    96  H          0.98050000       0.38760000       0.59490000
    97  C          0.13773000       0.72132000       0.68193170
    98  C          0.86227000       0.27868000       0.31806830
    99  C          0.05843000       0.63622000       0.72779180
   100  C          0.94157000       0.36378000       0.27220820
   101  H         -0.00410000       0.62090000       0.69460000
   102  H          0.00410000       0.37910000       0.30540000
   103  C          0.07103000       0.57353000       0.82239190
   104  C          0.92897000       0.42647000       0.17760810
   105  H          0.01650000       0.51540000       0.85540000
   106  H          0.98350000       0.48460000       0.14460000
   107  C          0.16413000       0.59683000       0.86825180
   108  C          0.83587000       0.40317000       0.13174820
   109  C          0.24573000       0.67993000       0.82245190
   110  C          0.75427000       0.32007000       0.17754810
   111  H          0.31010000       0.69310000       0.85550000
   112  H          0.68990000       0.30690000       0.14450000
   113  C          0.23253000       0.74352000       0.72831190
   114  C          0.76747000       0.25648000       0.27168810
   115  H          0.28710000       0.80160000       0.69550000
   116  H          0.71290000       0.19840000       0.30450000
   117  Cl         0.06335120       0.81503140       0.07822700
   118  Cl         0.93664880       0.18496860       0.92177300
   119  Cl         0.17861700       0.52159800       0.98791500
   120  Cl         0.82138300       0.47840200       0.01208500
   121  S          0.56085700       0.83079600       0.43599400
   122  S          0.43914300       0.16920400       0.56400600
   123  C          0.67003000       0.70833000       0.43012000
   124  C          0.32997000       0.29167000       0.56988000
   125  H          0.72940000       0.67920000       0.48220000
   126  H          0.27060000       0.32080000       0.51780000
   127  H          0.72100000       0.73150000       0.37090000
   128  H          0.27900000       0.26850000       0.62910000
   129  H          0.62010000       0.64620000       0.43420000
   130  H          0.37990000       0.35380000       0.56580000
   131  C          0.67763000       0.91613000       0.44312000
   132  C          0.32237000       0.08387000       0.55688000
   133  H          0.63220000       0.98540000       0.45410000
   134  H          0.36780000       0.01460000       0.54590000
   135  H          0.72970000       0.94080000       0.38440000
   136  H          0.27030000       0.05920000       0.61560000
   137  H          0.73530000       0.86920000       0.49470000
   138  H          0.26470000       0.13080000       0.50530000
   139  O          0.49290180       0.78960160       0.53351120
   140  O          0.50709820       0.21039840       0.46648880
   141  N          0.42104000       0.04013000       0.85092000
   142  N          0.57896000       0.95987000       0.14908000
   143  C          0.36464000       0.94794000       0.92743000
   144  C          0.63536000       0.05206000       0.07257000
   145  H          0.42390000       0.91520000       0.97960000
   146  H          0.57610000       0.08480000       0.02040000
   147  H          0.35200000       0.88590000       0.90610000
   148  H          0.64800000       0.11410000       0.09390000
   149  H          0.28010000       0.98030000       0.94790000
   150  H          0.71990000       0.01970000       0.05210000
   151  O          0.52644000       0.05624000       0.85683000
   152  O          0.47356000       0.94376000       0.14317000
   153  O          0.35044000       0.09363000       0.78382000
   154  O          0.64956000       0.90637000       0.21618000
