data_XULKEW
_symmetry_space_group_name_H-M    'P1'
_symmetry_Int_Tables_number       1
loop_
_symmetry_equiv_pos_site_id
_symmetry_equiv_pos_as_xyz
1 x,y,z
_cell_length_a                   13.16543
_cell_length_b                   15.04833
_cell_length_c                   16.25594
_cell_angle_alpha                66.66801
_cell_angle_beta                 84.65401
_cell_angle_gamma                80.84201
loop_
_atom_site_label
_atom_site_type_symbol
_atom_site_fract_x
_atom_site_fract_y
_atom_site_fract_z
     1  I          0.24735200       0.72180200       0.14178200
     2  I          0.75264800       0.27819800       0.85821800
     3  I          0.01151200       0.59950200       0.19674200
     4  I          0.98848800       0.40049800       0.80325800
     5  F          0.03880120       0.46121110       0.09146110
     6  F          0.96119880       0.53878890       0.90853890
     7  F          0.17634140       0.43539120       0.96817880
     8  F          0.82365860       0.56460880       0.03182120
     9  F          0.34622150       0.52720150       0.92565870
    10  F          0.65377850       0.47279850       0.07434130
    11  F          0.37602140       0.64816160       0.00315140
    12  F          0.62397860       0.35183840      -0.00315140
    13  C          0.21962000       0.62142190       0.08822170
    14  C          0.78038000       0.37857810       0.91177830
    15  C          0.13221190       0.57390170       0.11037160
    16  C          0.86778810       0.42609830       0.88962840
    17  C          0.12048190       0.51035180       0.07065170
    18  C          0.87951810       0.48964820       0.92934830
    19  C          0.19072000       0.49549190       0.00793180
    20  C          0.80928000       0.50450810      -0.00793180
    21  C          0.27622000       0.54272000       0.98565810
    22  C          0.72378000       0.45728000       0.01434190
    23  C          0.29012000       0.60442000       0.02608190
    24  C          0.70988000       0.39558000       0.97391810
    25  I          0.70784200       0.81784800       0.37143200
    26  I          0.29215800       0.18215200       0.62856800
    27  I          0.44346200       0.94798800       0.31053200
    28  I          0.55653800       0.05201200       0.68946800
    29  F          0.42205130       0.12714110       0.36785110
    30  F          0.57794870       0.87285890       0.63214890
    31  F          0.55057160       0.19756120       0.43805120
    32  F          0.44942840       0.80243880       0.56194880
    33  F          0.74257150       0.10137130       0.48392120
    34  F          0.25742850       0.89862870       0.51607880
    35  F          0.80628120       0.93713870       0.45697120
    36  F          0.19371880       0.06286130       0.54302880
    37  C          0.54822190       0.99443830       0.37100150
    38  C          0.45177810       0.00556170       0.62899850
    39  C          0.64711190       0.94499830       0.39466150
    40  C          0.35288810       0.05500170       0.60533850
    41  C          0.71042000       0.98244810       0.43258180
    42  C          0.28958000       0.01755190       0.56741820
    43  C          0.67852000       0.06638190       0.44735170
    44  C          0.32148000       0.93361810       0.55264830
    45  C          0.58232000       0.11516180       0.42431170
    46  C          0.41768000       0.88483820       0.57568830
    47  C          0.51732000       0.07841170       0.38746160
    48  C          0.48268000       0.92158830       0.61253840
    49  Br         0.28482200       0.88557200       0.21586200
    50  Br         0.71517800       0.11442800       0.78413800
    51  Br         0.81851200       0.63216200       0.32589200
    52  Br         0.18148800       0.36783800       0.67410800
    53  N          0.91649150       0.31256130       0.48925120
    54  N          0.08350850       0.68743870       0.51074880
    55  C          0.94820190       0.21590160       0.56604160
    56  C          0.05179810       0.78409840       0.43395840
    57  H          0.01180000       0.18330000       0.54690000
    58  H          0.98820000       0.81670000       0.45310000
    59  H          0.89370000       0.17380000       0.57660000
    60  H          0.10630000       0.82620000       0.42340000
    61  C          0.96742000       0.22143170       0.65406170
    62  C          0.03258000       0.77856830       0.34593830
    63  H          0.90330000       0.24980000       0.67660000
    64  H          0.09670000       0.75020000       0.32340000
    65  H          0.02070000       0.26440000       0.64490000
    66  H          0.97930000       0.73560000       0.35510000
    67  C          0.00302000       0.11948170       0.72286170
    68  C         -0.00302000       0.88051830       0.27713830
    69  H          0.94920000       0.07700000       0.73210000
    70  H          0.05080000       0.92300000       0.26790000
    71  H          0.06630000       0.09100000       0.69950000
    72  H          0.93370000       0.90900000       0.30050000
    73  C          0.02442000       0.12222000       0.81190190
    74  C          0.97558000       0.87778000       0.18809810
    75  H          0.04630000       0.05570000       0.85460000
    76  H          0.95370000       0.94430000       0.14540000
    77  H          0.96170000       0.15000000       0.83540000
    78  H          0.03830000       0.85000000       0.16460000
    79  H          0.07910000       0.16260000       0.80330000
    80  H          0.92090000       0.83740000       0.19670000
    81  C          0.81947190       0.36712160       0.51409160
    82  C          0.18052810       0.63287840       0.48590840
    83  H          0.83220000       0.37690000       0.56880000
    84  H          0.16780000       0.62310000       0.43120000
    85  H          0.80650000       0.43250000       0.46530000
    86  H          0.19350000       0.56750000       0.53470000
    87  C          0.72292000       0.31889190       0.53080190
    88  C          0.27708000       0.68110810       0.46919810
    89  H          0.73100000       0.25680000       0.58420000
    90  H          0.26900000       0.74320000       0.41580000
    91  H          0.71150000       0.30380000       0.47860000
    92  H          0.28850000       0.69620000       0.52140000
    93  C          0.63122000       0.38652000       0.54582000
    94  C          0.36878000       0.61348000       0.45418000
    95  H          0.63580000       0.38850000       0.60540000
    96  H          0.36420000       0.61150000       0.39460000
    97  H          0.63470000       0.45330000       0.50020000
    98  H          0.36530000       0.54670000       0.49980000
    99  C          0.53002000       0.35692000       0.54083000
   100  C          0.46998000       0.64308000       0.45917000
   101  H          0.47450000       0.40350000       0.55100000
   102  H          0.52550000       0.59650000       0.44900000
   103  H          0.52510000       0.29150000       0.58670000
   104  H          0.47490000       0.70850000       0.41330000
   105  H          0.52400000       0.35640000       0.48140000
   106  H          0.47600000       0.64360000       0.51860000
   107  C         -0.00080810       0.38009170       0.46600160
   108  C          0.00080810       0.61990830       0.53399840
   109  H          0.96980000       0.44570000       0.42450000
   110  H          0.03020000       0.55430000       0.57550000
   111  H          0.01570000       0.38610000       0.52160000
   112  H          0.98430000       0.61390000       0.47840000
   113  C          0.09852000       0.34942190       0.42390180
   114  C          0.90148000       0.65057810       0.57609820
   115  H          0.12650000       0.28180000       0.46210000
   116  H          0.87350000       0.71820000       0.53790000
   117  H          0.08510000       0.35080000       0.36440000
   118  H          0.91490000       0.64920000       0.63560000
   119  C          0.17662000       0.41832000       0.41343180
   120  C          0.82338000       0.58168000       0.58656820
   121  H          0.19580000       0.41060000       0.47360000
   122  H          0.80420000       0.58940000       0.52640000
   123  H          0.14460000       0.48650000       0.38220000
   124  H          0.85540000       0.51350000       0.61780000
   125  C          0.27303000       0.39883000       0.36113000
   126  C          0.72697000       0.60117000       0.63887000
   127  H          0.32070000       0.44470000       0.35590000
   128  H          0.67930000       0.55530000       0.64410000
   129  H          0.25460000       0.40740000       0.30110000
   130  H          0.74540000       0.59260000       0.69890000
   131  H          0.30600000       0.33180000       0.39250000
   132  H          0.69400000       0.66820000       0.60750000
   133  C          0.89861190       0.28809170       0.41017150
   134  C          0.10138810       0.71190830       0.58982850
   135  H          0.96430000       0.25620000       0.39340000
   136  H          0.03570000       0.74380000       0.60660000
   137  H          0.84880000       0.24020000       0.42930000
   138  H          0.15120000       0.75980000       0.57070000
   139  C          0.85862000       0.37464190       0.32801170
   140  C          0.14138000       0.62535810       0.67198830
   141  H          0.90470000       0.42550000       0.31130000
   142  H          0.09530000       0.57450000       0.68870000
   143  H          0.78940000       0.40280000       0.34220000
   144  H          0.21060000       0.59720000       0.65780000
   145  C          0.85263000       0.34562000       0.24908190
   146  C          0.14737000       0.65438000       0.75091810
   147  H          0.83690000       0.40560000       0.19480000
   148  H          0.16310000       0.59440000       0.80520000
   149  H          0.92090000       0.31270000       0.23860000
   150  H          0.07910000       0.68730000       0.76140000
   151  C          0.77394000       0.27973000       0.26092000
   152  C          0.22606000       0.72027000       0.73908000
   153  H          0.77510000       0.26440000       0.20750000
   154  H          0.22490000       0.73560000       0.79250000
   155  H          0.70540000       0.31230000       0.26930000
   156  H          0.29460000       0.68770000       0.73070000
   157  H          0.78950000       0.21910000       0.31360000
   158  H          0.21050000       0.78090000       0.68640000
   159  N          0.68646160       0.83381150       0.02856140
   160  N          0.31353840       0.16618850       0.97143860
   161  C          0.62852000       0.83472000       0.95161820
   162  C          0.37148000       0.16528000       0.04838180
   163  H          0.55440000       0.85400000       0.96160000
   164  H          0.44560000       0.14600000       0.03840000
   165  H          0.65140000       0.88600000       0.89570000
   166  H          0.34860000       0.11400000       0.10430000
   167  C          0.63982000       0.74042000       0.93694820
   168  C          0.36018000       0.25958000       0.06305180
   169  H          0.62020000       0.68720000      -0.00720000
   170  H          0.37980000       0.31280000       0.00720000
   171  H          0.71240000       0.72280000       0.92100000
   172  H          0.28760000       0.27720000       0.07900000
   173  C          0.57102000       0.75282000       0.86185810
   174  C          0.42898000       0.24718000       0.13814190
   175  H          0.49870000       0.77080000       0.87850000
   176  H          0.50130000       0.22920000       0.12150000
   177  H          0.59030000       0.80720000       0.80680000
   178  H          0.40970000       0.19280000       0.19320000
   179  C          0.57803000       0.66173000       0.84198000
   180  C          0.42197000       0.33827000       0.15802000
   181  H          0.53160000       0.67390000       0.79380000
   182  H          0.46840000       0.32610000       0.20620000
   183  H          0.55820000       0.60760000       0.89600000
   184  H          0.44180000       0.39240000       0.10400000
   185  H          0.64890000       0.64470000       0.82320000
   186  H          0.35110000       0.35530000       0.17680000
   187  C          0.80217190       0.81006190       0.01584180
   188  C          0.19782810       0.18993810       0.98415820
   189  H          0.81660000       0.74310000       0.01680000
   190  H          0.18340000       0.25690000       0.98320000
   191  H          0.83600000       0.80980000       0.06780000
   192  H          0.16400000       0.19020000       0.93220000
   193  C          0.85112000       0.87772000       0.93148000
   194  C          0.14888000       0.12228000       0.06852000
   195  H          0.82270000       0.87420000       0.87870000
   196  H          0.17730000       0.12580000       0.12130000
   197  H          0.83400000       0.94570000       0.92770000
   198  H          0.16600000       0.05430000       0.07230000
   199  C          0.96862000       0.85092000       0.92947000
   200  C          0.03138000       0.14908000       0.07053000
   201  H         -0.00150000       0.90310000       0.87860000
   202  H          0.00150000       0.09690000       0.12140000
   203  H         -0.00440000       0.84850000       0.98540000
   204  H          0.00440000       0.15150000       0.01460000
   205  C          0.00363000       0.75663000       0.92098000
   206  C         -0.00363000       0.24337000       0.07902000
   207  H          0.07890000       0.74390000       0.92130000
   208  H          0.92110000       0.25610000       0.07870000
   209  H          0.98000000       0.75910000       0.86450000
   210  H          0.02000000       0.24090000       0.13550000
   211  H          0.97490000       0.70420000       0.97130000
   212  H          0.02510000       0.29580000       0.02870000
   213  C          0.65802000       0.93582190       0.02917180
   214  C          0.34198000       0.06417810       0.97082820
   215  H          0.66770000       0.98400000       0.96740000
   216  H          0.33230000       0.01600000       0.03260000
   217  H          0.58390000       0.94420000       0.04580000
   218  H          0.41610000       0.05580000       0.95420000
   219  C          0.71712000       0.96012000       0.09102000
   220  C          0.28288000       0.03988000       0.90898000
   221  H          0.78910000       0.96610000       0.06790000
   222  H          0.21090000       0.03390000       0.93210000
   223  H          0.71840000       0.90690000       0.15130000
   224  H          0.28160000       0.09310000       0.84870000
   225  C          0.66752000       0.05472000       0.09752000
   226  C          0.33248000       0.94528000       0.90248000
   227  H          0.65660000       0.10490000       0.03620000
   228  H          0.34340000       0.89510000       0.96380000
   229  H          0.59910000       0.04510000       0.12810000
   230  H          0.40090000       0.95490000       0.87190000
   231  C          0.72963000       0.09213000       0.14743000
   232  C          0.27037000       0.90787000       0.85257000
   233  H          0.69210000       0.15250000       0.15050000
   234  H          0.30790000       0.84750000       0.84950000
   235  H          0.79610000       0.10530000       0.11580000
   236  H          0.20390000       0.89470000       0.88420000
   237  H          0.74090000       0.04290000       0.20820000
   238  H          0.25910000       0.95710000       0.79180000
   239  C          0.65782000       0.75572000       0.11715170
   240  C          0.34218000       0.24428000       0.88284830
   241  H          0.68300000       0.69110000       0.11490000
   242  H          0.31700000       0.30890000       0.88510000
   243  H          0.69470000       0.76090000       0.16510000
   244  H          0.30530000       0.23910000       0.83490000
   245  C          0.54542000       0.75883000       0.14292000
   246  C          0.45458000       0.24117000       0.85708000
   247  H          0.50700000       0.75220000       0.09650000
   248  H          0.49300000       0.24780000       0.90350000
   249  H          0.51870000       0.82240000       0.14690000
   250  H          0.48130000       0.17760000       0.85310000
   251  C          0.52913000       0.67553000       0.23352000
   252  C          0.47087000       0.32447000       0.76648000
   253  H          0.57460000       0.67880000       0.27720000
   254  H          0.42540000       0.32120000       0.72280000
   255  H          0.45720000       0.68630000       0.25490000
   256  H          0.54280000       0.31370000       0.74510000
   257  C          0.54934000       0.57703000       0.23293000
   258  C          0.45066000       0.42297000       0.76707000
   259  H          0.53790000       0.52880000       0.29360000
   260  H          0.46210000       0.47120000       0.70640000
   261  H          0.62070000       0.56470000       0.21290000
   262  H          0.37930000       0.43530000       0.78710000
   263  H          0.50260000       0.57170000       0.19200000
   264  H          0.49740000       0.42830000       0.80800000
   265  C          0.84623000       0.92493000       0.67173000
   266  C          0.15377000       0.07507000       0.32827000
   267  H          0.83780000       0.95230000       0.71850000
   268  H          0.16220000       0.04770000       0.28150000
   269  H          0.79380000       0.96250000       0.62640000
   270  H          0.20620000       0.03750000       0.37360000
   271  Cl         0.96601900       0.93975800       0.62159900
   272  Cl         0.03398100       0.06024200       0.37840100
   273  Cl         0.82419900       0.80409900       0.71994800
   274  Cl         0.17580100       0.19590100       0.28005200
