data_XUPXOV
_symmetry_space_group_name_H-M    'P1'
_symmetry_Int_Tables_number       1
loop_
_symmetry_equiv_pos_site_id
_symmetry_equiv_pos_as_xyz
1 x,y,z
_cell_length_a                   11.0055
_cell_length_b                   11.6874
_cell_length_c                   14.4624
_cell_angle_alpha                73.042
_cell_angle_beta                 86.713
_cell_angle_gamma                78.965
loop_
_atom_site_label
_atom_site_type_symbol
_atom_site_fract_x
_atom_site_fract_y
_atom_site_fract_z
     1  P          0.62812000       0.07682000       0.76021140
     2  P          0.37188000       0.92318000       0.23978860
     3  Cl         0.71022000       0.04892000       0.62839130
     4  Cl         0.28978000       0.95108000       0.37160870
     5  N          0.59345000       0.23204000       0.72664000
     6  N          0.40655000       0.76796000       0.27336000
     7  C          0.46147000       0.28056000       0.72325000
     8  C          0.53853000       0.71944000       0.27675000
     9  N          0.42936000       0.38595000       0.65384000
    10  N          0.57064000       0.61405000       0.34616000
    11  C          0.30778000       0.43728000       0.64426000
    12  C          0.69222000       0.56272000       0.35574000
    13  H          0.28438000       0.51158000       0.59636000
    14  H          0.71562000       0.48842000       0.40364000
    15  C          0.21838000       0.38619000       0.70057000
    16  C          0.78162000       0.61381000       0.29943000
    17  H          0.13458000       0.42249000       0.68937000
    18  H          0.86542000       0.57751000       0.31063000
    19  C          0.25119000       0.28088000       0.77407000
    20  C          0.74881000       0.71912000       0.22593000
    21  H          0.19049000       0.24588000       0.81517000
    22  H          0.80951000       0.75412000       0.18483000
    23  C          0.37589000       0.22638000       0.78696000
    24  C          0.62411000       0.77362000       0.21304000
    25  H          0.40109000       0.15498000       0.83736000
    26  H          0.59891000       0.84502000       0.16264000
    27  P          0.71452000       0.41872000       0.83347130
    28  P          0.28548000       0.58128000       0.16652870
    29  Cl         0.89902000       0.45282000       0.80526140
    30  Cl         0.10098000       0.54718000       0.19473860
    31  N          0.74405000       0.26484000       0.86934000
    32  N          0.25595000       0.73516000       0.13066000
    33  C          0.71148000       0.20936000       0.96855000
    34  C          0.28852000       0.79064000       0.03145000
    35  N          0.79837000       0.11976000       0.01925000
    36  N          0.20163000       0.88024000       0.98075000
    37  C          0.76941000       0.06468000       0.11316000
    38  C          0.23059000       0.93532000       0.88684000
    39  H          0.82911000       0.00148000       0.14996000
    40  H          0.17089000      -0.00148000       0.85004000
    41  C          0.66261100       0.09459000       0.15577000
    42  C          0.33738900       0.90541000       0.84423000
    43  H          0.64841100       0.05469000       0.22087000
    44  H          0.35158900       0.94531000       0.77913000
    45  C          0.57301000       0.18539000       0.10237000
    46  C          0.42699000       0.81461000       0.89763000
    47  H          0.49691000       0.20749000       0.13117000
    48  H          0.50309000       0.79251000       0.86883000
    49  C          0.59419000       0.24328000       0.00806000
    50  C          0.40581000       0.75672000      -0.00806000
    51  H          0.53289000       0.30368000       0.97056000
    52  H          0.46711000       0.69632000       0.02944000
    53  P          0.68252000       0.33412000       0.65435130
    54  P          0.31748000       0.66588000       0.34564870
    55  N          0.66305000       0.44294000       0.71774000
    56  N          0.33695000       0.55706000       0.28226000
    57  C          0.62686000       0.56836000       0.66735000
    58  C          0.37314000       0.43164000       0.33265000
    59  N          0.64875000       0.64165000       0.71674000
    60  N          0.35125000       0.35835000       0.28326000
    61  C          0.61577000       0.76176000       0.67535000
    62  C          0.38423000       0.23824000       0.32465000
    63  H          0.62927000       0.81476000       0.71005000
    64  H          0.37073000       0.18524000       0.28995000
    65  C          0.56388000       0.81126000       0.58605000
    66  C          0.43612000       0.18874000       0.41395000
    67  H          0.54248000       0.89616000       0.55975000
    68  H          0.45752000       0.10384000       0.44025000
    69  C          0.54327000       0.73316000       0.53465000
    70  C          0.45673000       0.26684000       0.46535000
    71  H          0.50837000       0.76466000       0.47255000
    72  H          0.49163000       0.23534000       0.52745000
    73  C          0.57437000       0.60896000       0.57555000
    74  C          0.42563000       0.39104000       0.42445000
    75  H          0.56077000       0.55406000       0.54275000
    76  H          0.43923000       0.44594000       0.45725000
    77  P          0.84852000       0.16512000       0.81977130
    78  P          0.15148000       0.83488000       0.18022870
    79  N          0.75925000       0.05544000       0.82664000
    80  N          0.24075000       0.94456000       0.17336000
    81  C          0.80427000       0.93094000       0.87755000
    82  C          0.19573000       0.06906000       0.12245000
    83  N          0.74396000       0.85325000       0.85464000
    84  N          0.25604000       0.14675000       0.14536000
    85  C          0.77808000       0.73454000       0.90266000
    86  C          0.22192000       0.26546000       0.09734000
    87  H          0.73538000       0.67904000       0.88896000
    88  H          0.26462000       0.32096000       0.11104000
    89  C          0.86968000       0.68973000       0.96946000
    90  C          0.13032000       0.31027000       0.03054000
    91  H          0.88958000       0.60593000       0.00116000
    92  H          0.11042000       0.39407000      -0.00116000
    93  C          0.93258000       0.77063000       0.98946000
    94  C          0.06742000       0.22937000       0.01054000
    95  H         -0.00182000       0.74243000       0.03406000
    96  H          0.00182000       0.25757000       0.96594000
    97  C          0.89887000       0.89434000       0.94335000
    98  C          0.10113000       0.10566000       0.05665000
    99  H          0.93987000       0.95124000       0.95695000
   100  H          0.06013000       0.04876000       0.04305000
   101  N          0.82285000       0.24835000       0.70184000
   102  N          0.17715000       0.75165000       0.29816000
   103  C          0.92557000       0.24666000       0.63595000
   104  C          0.07443000       0.75334000       0.36405000
   105  N          0.92197000       0.34856000       0.56295000
   106  N          0.07803000       0.65144000       0.43705000
   107  C          0.01911100       0.34729000       0.49987000
   108  C          0.98088900       0.65271000       0.50013000
   109  H          0.02031100       0.41729000       0.44757000
   110  H          0.97968900       0.58271000       0.55243000
   111  C          0.11291100       0.25291200       0.50729000
   112  C          0.88708900       0.74708800       0.49271000
   113  H          0.17821100       0.25731200       0.46229000
   114  H          0.82178900       0.74268800       0.53771000
   115  C          0.11061000       0.15091000       0.58189000
   116  C          0.88939000       0.84909000       0.41811000
   117  H          0.17551000       0.08371000       0.58899000
   118  H          0.82449000       0.91629000       0.41101000
   119  C          0.01468000       0.14467000       0.64736000
   120  C          0.98532000       0.85533000       0.35264000
   121  H          0.01048000       0.07337000       0.69766000
   122  H          0.98952000       0.92663000       0.30234000
   123  C          0.12381400       0.66201200       0.80841100
   124  C          0.87618600       0.33798800       0.19158900
   125  H          0.08901400       0.61981200       0.86621100
   126  H          0.91098600       0.38018800       0.13378900
   127  C          0.04721300       0.74751300       0.73961300
   128  C          0.95278700       0.25248700       0.26038700
   129  H          0.96138700       0.76101300       0.75081300
   130  H          0.03861300       0.23898700       0.24918700
   131  C          0.09471400       0.81441100       0.65341100
   132  C          0.90528600       0.18558900       0.34658900
   133  H          0.04251400       0.87431100       0.60711100
   134  H          0.95748600       0.12568900       0.39288900
   135  C          0.22001300       0.78961100       0.63868000
   136  C          0.77998700       0.21038900       0.36132000
   137  H          0.25541300       0.83081100       0.58078000
   138  H          0.74458700       0.16918900       0.41922000
   139  C          0.29391100       0.70311000       0.70988000
   140  C          0.70608900       0.29689000       0.29012000
   141  H          0.37991100       0.68841000       0.69968000
   142  H          0.62008900       0.31159000       0.30032000
   143  C          0.24631100       0.63739000       0.79579000
   144  C          0.75368900       0.36261000       0.20421000
   145  C          0.33091200       0.54071000       0.86929000
   146  C          0.66908800       0.45929000       0.13071000
   147  H          0.30264800       0.54155400       0.93389000
   148  H          0.69735200       0.45844600       0.06611000
   149  H          0.41461900       0.55724500       0.86014100
   150  H          0.58538100       0.44275500       0.13985900
   151  H          0.32996300       0.46151300       0.86094200
   152  H          0.67003700       0.53848700       0.13905800
