data_XUTQIP
_symmetry_space_group_name_H-M    'P1'
_symmetry_Int_Tables_number       1
loop_
_symmetry_equiv_pos_site_id
_symmetry_equiv_pos_as_xyz
1 x,y,z
_cell_length_a                   26.04912
_cell_length_b                   7.895701
_cell_length_c                   14.012501
_cell_angle_alpha                90.0
_cell_angle_beta                 99.94501
_cell_angle_gamma                90.0
loop_
_atom_site_label
_atom_site_type_symbol
_atom_site_fract_x
_atom_site_fract_y
_atom_site_fract_z
     1  I          0.16777200       0.63177200       0.30287200
     2  I          0.83222800       0.13177200       0.19712800
     3  I          0.83222800       0.36822800       0.69712800
     4  I          0.16777200       0.86822800       0.80287200
     5  Br         0.29485200       0.51407300       0.38424200
     6  Br         0.70514800       0.01407300       0.11575800
     7  Br         0.70514800       0.48592700       0.61575800
     8  Br         0.29485200      -0.01407300       0.88424200
     9  F          0.48159600       0.55382000       0.25337110
    10  F          0.51840400       0.05382000       0.24662890
    11  F          0.51840400       0.44618000       0.74662890
    12  F          0.48159600       0.94618000       0.75337110
    13  F          0.38759600       0.56932000       0.28417120
    14  F          0.61240400       0.06932000       0.21582880
    15  F          0.61240400       0.43068000       0.71582880
    16  F          0.38759600       0.93068000       0.78417120
    17  F          0.34353600       0.29722000       0.55665120
    18  F          0.65646400       0.79722000       0.94334880
    19  F          0.65646400       0.70278000       0.44334880
    20  F          0.34353600       0.20278000       0.05665120
    21  F          0.53096700       0.13012000       0.56283130
    22  F          0.46903300       0.63012000       0.93716870
    23  F          0.46903300       0.86988000       0.43716870
    24  F          0.53096700       0.36988000       0.06283130
    25  F          0.43840700       0.16522000       0.60113120
    26  F          0.56159300       0.66522000       0.89886880
    27  F          0.56159300       0.83478000       0.39886880
    28  F          0.43840700       0.33478000       0.10113120
    29  F          0.60181600       0.20912000       0.45170140
    30  F          0.39818400       0.70912000       0.04829860
    31  F          0.39818400       0.79088000       0.54829860
    32  F          0.60181600       0.29088000       0.95170140
    33  F          0.57711700       0.42192000       0.30026140
    34  F          0.42288300       0.92192000       0.19973860
    35  F          0.42288300       0.57808000       0.69973860
    36  F          0.57711700       0.07808000       0.80026140
    37  C          0.45243100       0.40793000       0.38334180
    38  C          0.54756900       0.90793000       0.11665820
    39  C          0.54756900       0.59207000       0.61665820
    40  C          0.45243100       0.09207000       0.88334180
    41  C          0.46548100       0.29873000       0.46568180
    42  C          0.53451900       0.79873000       0.03431820
    43  C          0.53451900       0.70127000       0.53431820
    44  C          0.46548100       0.20127000       0.96568180
    45  C          0.37839100       0.33183000       0.50024190
    46  C          0.62160900       0.83183000      -0.00024190
    47  C          0.62160900       0.66817000       0.49975810
    48  C          0.37839100       0.16817000       0.00024190
    49  C          0.36433100       0.43633000       0.41852000
    50  C          0.63566900       0.93633000       0.08148000
    51  C          0.63566900       0.56367000       0.58148000
    52  C          0.36433100       0.06367000       0.91852000
    53  C          0.54077110       0.38203000       0.35122000
    54  C          0.45922890       0.88203000       0.14878000
    55  C          0.45922890       0.61797000       0.64878000
    56  C          0.54077110       0.11797000       0.85122000
    57  C          0.49154110       0.44713000       0.32904190
    58  C          0.50845890       0.94713000       0.17095810
    59  C          0.50845890       0.55287000       0.67095810
    60  C          0.49154110       0.05287000       0.82904190
    61  C          0.40079100       0.47203000       0.36263190
    62  C          0.59920900       0.97203000       0.13736810
    63  C          0.59920900       0.52797000       0.63736810
    64  C          0.40079100       0.02797000       0.86263190
    65  C          0.55319100       0.27134000       0.43162000
    66  C          0.44680900       0.77134000       0.06838000
    67  C          0.44680900       0.72866000       0.56838000
    68  C          0.55319100       0.22866000       0.93162000
    69  C          0.42731100       0.26493000       0.52241190
    70  C          0.57268900       0.76493000       0.97758810
    71  C          0.57268900       0.73507000       0.47758810
    72  C          0.42731100       0.23507000       0.02241190
    73  C          0.51709100       0.23223000       0.48662000
    74  C          0.48290900       0.73223000       0.01338000
    75  C          0.48290900       0.76777000       0.51338000
    76  C          0.51709100       0.26777000       0.98662000
    77  N          0.83498800       0.63422000       0.37823140
    78  N          0.16501200       0.13422000       0.12176860
    79  N          0.16501200       0.36578000       0.62176860
    80  N          0.83498800       0.86578000       0.87823140
    81  C          0.82056900       0.81203000       0.40655170
    82  C          0.17943100       0.31203000       0.09344830
    83  C          0.17943100       0.18797000       0.59344830
    84  C          0.82056900       0.68797000       0.90655170
    85  H          0.79953300       0.86485900       0.35058900
    86  H          0.20046700       0.36485900       0.14941100
    87  H          0.20046700       0.13514100       0.64941100
    88  H          0.79953300       0.63514100       0.85058900
    89  H          0.85231400       0.87774300       0.42293200
    90  H          0.14768600       0.37774300       0.07706800
    91  H          0.14768600       0.12225700       0.57706800
    92  H          0.85231400       0.62225700       0.92293200
    93  C          0.79082100       0.82143000       0.49132170
    94  C          0.20917900       0.32143000       0.00867830
    95  C          0.20917900       0.17857000       0.50867830
    96  C          0.79082100       0.67857000      -0.00867830
    97  H          0.81204600       0.77445800       0.54894300
    98  H          0.18795400       0.27445800       0.95105700
    99  H          0.18795400       0.22554200       0.45105700
   100  H          0.81204600       0.72554200       0.04894300
   101  H          0.75913700       0.75482800       0.47663600
   102  H          0.24086300       0.25482800       0.02336400
   103  H          0.24086300       0.24517200       0.52336400
   104  H          0.75913700       0.74517200       0.97663600
   105  C          0.91460900       0.72063000       0.30176160
   106  C          0.08539100       0.22063000       0.19823840
   107  C          0.08539100       0.27937000       0.69823840
   108  C          0.91460900       0.77937000       0.80176160
   109  H          0.93835300       0.64844700       0.34469800
   110  H          0.06164700       0.14844700       0.15530200
   111  H          0.06164700       0.35155300       0.65530200
   112  H          0.93835300       0.85155300       0.84469800
   113  H          0.91481900       0.83196900       0.33104200
   114  H          0.08518100       0.33196900       0.16895800
   115  H          0.08518100       0.16803100       0.66895800
   116  H          0.91481900       0.66803100       0.83104200
   117  C          0.85974900       0.64673000       0.28756160
   118  C          0.14025100       0.14673000       0.21243840
   119  C          0.14025100       0.35327000       0.71243840
   120  C          0.85974900       0.85327000       0.78756160
   121  H          0.83734900       0.71558200       0.24033300
   122  H          0.16265100       0.21558200       0.25966700
   123  H          0.16265100       0.28441800       0.75966700
   124  H          0.83734900       0.78441800       0.74033300
   125  H          0.86074400       0.53407200       0.26025900
   126  H          0.13925600       0.03407200       0.23974100
   127  H          0.13925600       0.46592800       0.73974100
   128  H          0.86074400       0.96592800       0.76025900
   129  C          0.78706900       0.52143000       0.35587160
   130  C          0.21293100       0.02143000       0.14412840
   131  C          0.21293100       0.47857000       0.64412840
   132  C          0.78706900       0.97857000       0.85587160
   133  H          0.77414000       0.50026000       0.41567900
   134  H          0.22586000       0.00026000       0.08432100
   135  H          0.22586000       0.49974000       0.58432100
   136  H          0.77414000      -0.00026000       0.91567900
   137  H          0.79747700       0.41328300       0.33239300
   138  H          0.20252300       0.91328300       0.16760700
   139  H          0.20252300       0.58671700       0.66760700
   140  H          0.79747700       0.08671700       0.83239300
   141  C          0.87246900       0.55643000       0.46133160
   142  C          0.12753100       0.05643000       0.03866840
   143  C          0.12753100       0.44357000       0.53866840
   144  C          0.87246900       0.94357000       0.96133160
   145  H          0.85580800       0.55449300       0.51812100
   146  H          0.14419200       0.05449300       0.98187900
   147  H          0.14419200       0.44550700       0.48187900
   148  H          0.85580800       0.94550700       0.01812100
   149  H          0.90285800       0.62897200       0.47592900
   150  H          0.09714200       0.12897200       0.02407100
   151  H          0.09714200       0.37102800       0.52407100
   152  H          0.90285800       0.87102800       0.97592900
   153  C          0.74259900       0.59283000       0.28151170
   154  C          0.25740100       0.09283000       0.21848830
   155  C          0.25740100       0.40717000       0.71848830
   156  C          0.74259900       0.90717000       0.78151170
   157  H          0.75583100       0.63056400       0.22451400
   158  H          0.24416900       0.13056400       0.27548600
   159  H          0.24416900       0.36943600       0.77548600
   160  H          0.75583100       0.86943600       0.72451400
   161  H          0.72712100       0.68928700       0.30874000
   162  H          0.27287900       0.18928700       0.19126000
   163  H          0.27287900       0.31071300       0.69126000
   164  H          0.72712100       0.81071300       0.80874000
   165  C          0.93633900       0.32903000       0.52149170
   166  C          0.06366100       0.82903000       0.97850830
   167  C          0.06366100       0.67097000       0.47850830
   168  C          0.93633900       0.17097000       0.02149170
   169  H          0.96655500       0.39625100       0.51400500
   170  H          0.03344500       0.89625100       0.98599500
   171  H          0.03344500       0.60374900       0.48599500
   172  H          0.96655500       0.10374900       0.01400500
   173  H          0.92780900       0.35333300       0.58479500
   174  H          0.07219100       0.85333300       0.91520500
   175  H          0.07219100       0.64666700       0.41520500
   176  H          0.92780900       0.14666700       0.08479500
   177  C          0.93224900       0.73363000       0.20367170
   178  C          0.06775100       0.23363000       0.29632830
   179  C          0.06775100       0.26637000       0.79632830
   180  C          0.93224900       0.76637000       0.70367170
   181  H          0.93325000       0.62099000       0.17641100
   182  H          0.06675000       0.12099000       0.32358900
   183  H          0.06675000       0.37901000       0.82358900
   184  H          0.93325000       0.87901000       0.67641100
   185  H          0.90689400       0.79952600       0.16004200
   186  H          0.09310600       0.29952600       0.33995800
   187  H          0.09310600       0.20047400       0.83995800
   188  H          0.90689400       0.70047400       0.66004200
   189  C          0.94931110       0.14303000       0.51552000
   190  C          0.05068890       0.64303000       0.98448000
   191  C          0.05068890       0.85697000       0.48448000
   192  C          0.94931110       0.35697000       0.01552000
   193  H          0.95320800       0.11557500       0.45033700
   194  H          0.04679200       0.61557500       0.04966300
   195  H          0.04679200       0.88442500       0.54966300
   196  H          0.95320800       0.38442500       0.95033700
   197  H          0.92169200       0.07625100       0.53346700
   198  H          0.07830800       0.57625100       0.96653300
   199  H          0.07830800       0.92374900       0.46653300
   200  H          0.92169200       0.42374900       0.03346700
   201  H          0.98126000       0.11906000       0.55871200
   202  H          0.01874000       0.61906000       0.94128800
   203  H          0.01874000       0.88094000       0.44128800
   204  H          0.98126000       0.38094000       0.05871200
   205  C          0.70151900       0.45523000       0.25348190
   206  C          0.29848100       0.95523000       0.24651810
   207  C          0.29848100       0.54477000       0.74651810
   208  C          0.70151900       0.04477000       0.75348190
   209  H          0.71808700       0.35499000       0.23266500
   210  H          0.28191300       0.85499000       0.26733500
   211  H          0.28191300       0.64501000       0.76733500
   212  H          0.71808700       0.14501000       0.73266500
   213  H          0.68646800       0.42496200       0.30983000
   214  H          0.31353200       0.92496200       0.19017000
   215  H          0.31353200       0.57503800       0.69017000
   216  H          0.68646800       0.07503800       0.80983000
   217  C          0.89050900       0.37843000       0.44333170
   218  C          0.10949100       0.87843000       0.05666830
   219  C          0.10949100       0.62157000       0.55666830
   220  C          0.89050900       0.12157000       0.94333170
   221  H          0.90092700       0.37301400       0.38020800
   222  H          0.09907300       0.87301400       0.11979200
   223  H          0.09907300       0.62698600       0.61979200
   224  H          0.90092700       0.12698600       0.88020800
   225  H          0.86203300       0.29939100       0.44372200
   226  H          0.13796700       0.79939100       0.05627800
   227  H          0.13796700       0.70060900       0.55627800
   228  H          0.86203300       0.20060900       0.94372200
   229  C          0.65832100       0.51264000       0.17262000
   230  C          0.34167900       0.01264000       0.32738000
   231  C          0.34167900       0.48736000       0.82738000
   232  C          0.65832100      -0.01264000       0.67262000
   233  H          0.67298800       0.54102800       0.11631600
   234  H          0.32701200       0.04102800       0.38368400
   235  H          0.32701200       0.45897200       0.88368400
   236  H          0.67298800       0.95897200       0.61631600
   237  H          0.64126800       0.61019700       0.19344800
   238  H          0.35873200       0.11019700       0.30655200
   239  H          0.35873200       0.38980300       0.80655200
   240  H          0.64126800       0.88980300       0.69344800
   241  H          0.63344900       0.42278900       0.15687700
   242  H          0.36655100       0.92278900       0.34312300
   243  H          0.36655100       0.57721100       0.84312300
   244  H          0.63344900       0.07721100       0.65687700
   245  C          0.77712110       0.00533000       0.51012000
   246  C          0.22287890       0.50533000       0.98988000
   247  C          0.22287890      -0.00533000       0.48988000
   248  C          0.77712110       0.49467000       0.01012000
   249  H          0.76370400       0.01046900       0.57045200
   250  H          0.23629600       0.51046900       0.92954800
   251  H          0.23629600      -0.01046900       0.42954800
   252  H          0.76370400       0.48953100       0.07045200
   253  H          0.80877200       0.07240400       0.51818700
   254  H          0.19122800       0.57240400       0.98181300
   255  H          0.19122800       0.92759600       0.48181300
   256  H          0.80877200       0.42759600       0.01818700
   257  C          0.98568100       0.81544000       0.21022000
   258  C          0.01431900       0.31544000       0.28978000
   259  C          0.01431900       0.18456000       0.78978000
   260  C          0.98568100       0.68456000       0.71022000
   261  H         -0.00552700       0.82303500       0.14652600
   262  H          0.00552700       0.32303500       0.35347400
   263  H          0.00552700       0.17696500       0.85347400
   264  H         -0.00552700       0.67696500       0.64652600
   265  H          0.01125300       0.74790900       0.25080900
   266  H          0.98874700       0.24790900       0.24919100
   267  H          0.98874700       0.25209100       0.74919100
   268  H          0.01125300       0.75209100       0.75080900
   269  H          0.98498900       0.92694300       0.23721900
   270  H          0.01501100       0.42694300       0.26278100
   271  H          0.01501100       0.07305700       0.76278100
   272  H          0.98498900       0.57305700       0.73721900
   273  C          0.73759140       0.08374000       0.43102000
   274  C          0.26240860       0.58374000       0.06898000
   275  C          0.26240860       0.91626000       0.56898000
   276  C          0.73759140       0.41626000       0.93102000
   277  H          0.75194100       0.09046500       0.37246800
   278  H          0.24805900       0.59046500       0.12753200
   279  H          0.24805900       0.90953500       0.62753200
   280  H          0.75194100       0.40953500       0.87246800
   281  H          0.72899800       0.19543900       0.45026600
   282  H          0.27100200       0.69543900       0.04973400
   283  H          0.27100200       0.80456100       0.54973400
   284  H          0.72899800       0.30456100       0.95026600
   285  H          0.70669700       0.01518600       0.42002200
   286  H          0.29330300       0.51518600       0.07997800
   287  H          0.29330300      -0.01518600       0.57997800
   288  H          0.70669700       0.48481400       0.92002200
