data_XUTQAH
_symmetry_space_group_name_H-M    'P1'
_symmetry_Int_Tables_number       1
loop_
_symmetry_equiv_pos_site_id
_symmetry_equiv_pos_as_xyz
1 x,y,z
_cell_length_a                   24.016512
_cell_length_b                   7.74053
_cell_length_c                   14.17806
_cell_angle_alpha                90.0
_cell_angle_beta                 95.8974
_cell_angle_gamma                90.0
loop_
_atom_site_label
_atom_site_type_symbol
_atom_site_fract_x
_atom_site_fract_y
_atom_site_fract_z
     1  I          0.18972200       0.38759200       0.55109200
     2  I          0.81027800       0.88759200       0.94890800
     3  I          0.81027800       0.61240800       0.44890800
     4  I          0.18972200       0.11240800       0.05109200
     5  Br         0.32635200       0.51002300       0.54206200
     6  Br         0.67364800       0.01002300       0.95793800
     7  Br         0.67364800       0.48997700       0.45793800
     8  Br         0.32635200      -0.01002300       0.04206200
     9  F          0.38257600       0.72092000       0.39476100
    10  F          0.61742400       0.22092000       0.10523900
    11  F          0.61742400       0.27908000       0.60523900
    12  F          0.38257600       0.77908000       0.89476100
    13  F          0.42404700       0.46552000       0.69613110
    14  F          0.57595300       0.96552000       0.80386890
    15  F          0.57595300       0.53448000       0.30386890
    16  F          0.42404700       0.03448000       0.19613110
    17  F          0.48716700       0.84852000       0.40420130
    18  F          0.51283300       0.34852000       0.09579870
    19  F          0.51283300       0.15148000       0.59579870
    20  F          0.48716700       0.65148000       0.90420130
    21  F          0.52922700       0.59013000       0.70287130
    22  F          0.47077300       0.09013000       0.79712870
    23  F          0.47077300       0.40987000       0.29712870
    24  F          0.52922700       0.90987000       0.20287130
    25  F          0.56083600       0.78512000       0.55855140
    26  F          0.43916400       0.28512000       0.94144860
    27  F          0.43916400       0.21488000       0.44144860
    28  F          0.56083600       0.71488000       0.05855140
    29  C          0.40070900       0.59033000       0.54525160
    30  C          0.59929100       0.09033000       0.95474840
    31  C          0.59929100       0.40967000       0.45474840
    32  C          0.40070900       0.90967000       0.04525160
    33  C          0.41804900       0.68763000       0.47180170
    34  C          0.58195100       0.18763000       0.02819830
    35  C          0.58195100       0.31237000       0.52819830
    36  C          0.41804900       0.81237000       0.97180170
    37  C          0.43887100       0.55873000       0.62304180
    38  C          0.56112900       0.05873000       0.87695820
    39  C          0.56112900       0.44127000       0.37695820
    40  C          0.43887100       0.94127000       0.12304180
    41  C          0.50850100       0.72224000       0.55432000
    42  C          0.49149900       0.22224000       0.94568000
    43  C          0.49149900       0.27776000       0.44568000
    44  C          0.50850100       0.77776000       0.05432000
    45  C          0.47146100       0.75443000       0.47632000
    46  C          0.52853900       0.25443000       0.02368000
    47  C          0.52853900       0.24557000       0.52368000
    48  C          0.47146100       0.74557000       0.97632000
    49  C          0.49279100       0.62424000       0.62762000
    50  C          0.50720900       0.12424000       0.87238000
    51  C          0.50720900       0.37576000       0.37238000
    52  C          0.49279100       0.87576000       0.12762000
    53  N          0.81633600       0.39475190       0.76697100
    54  N          0.18366400       0.89475190       0.73302900
    55  N          0.18366400       0.60524810       0.23302900
    56  N          0.81633600       0.10524810       0.26697100
    57  C          0.80238800       0.21332000       0.73010120
    58  C          0.19761200       0.71332000       0.76989880
    59  C          0.19761200       0.78668000       0.26989880
    60  C          0.80238800       0.28668000       0.23010120
    61  H          0.77955000       0.15668000       0.77349000
    62  H          0.22045000       0.65668000       0.72651000
    63  H          0.22045000       0.84332000       0.22651000
    64  H          0.77955000       0.34332000       0.27349000
    65  H          0.83694400       0.14839400       0.73048600
    66  H          0.16305600       0.64839400       0.76951400
    67  H          0.16305600       0.85160600       0.26951400
    68  H          0.83694400       0.35160600       0.23048600
    69  C          0.77167800       0.20572000       0.63067120
    70  C          0.22832200       0.70572000       0.86932880
    71  C          0.22832200       0.79428000       0.36932880
    72  C          0.77167800       0.29428000       0.13067120
    73  H          0.79393200       0.26246200       0.58645200
    74  H          0.20606800       0.76246200       0.91354800
    75  H          0.20606800       0.73753800       0.41354800
    76  H          0.79393200       0.23753800       0.08645200
    77  H          0.73632900       0.26666300       0.62971300
    78  H          0.26367100       0.76666300       0.87028700
    79  H          0.26367100       0.73333700       0.37028700
    80  H          0.73632900       0.23333700       0.12971300
    81  C          0.83903700       0.38342000       0.87112110
    82  C          0.16096300       0.88342000       0.62887890
    83  C          0.16096300       0.61658000       0.12887890
    84  C          0.83903700       0.11658000       0.37112110
    85  H          0.83916700       0.49872500       0.89787200
    86  H          0.16083300      -0.00127500       0.60212800
    87  H          0.16083300       0.50127500       0.10212800
    88  H          0.83916700       0.00127500       0.39787200
    89  H          0.81330600       0.31421700       0.90375400
    90  H          0.18669400       0.81421700       0.59624600
    91  H          0.18669400       0.68578300       0.09624600
    92  H          0.81330600       0.18578300       0.40375400
    93  C          0.71539700       0.43702000       0.80637130
    94  C          0.28460300       0.93702000       0.69362870
    95  C          0.28460300       0.56298000       0.19362870
    96  C          0.71539700       0.06298000       0.30637130
    97  H          0.72791000       0.40271300       0.87088800
    98  H          0.27209000       0.90271300       0.62911200
    99  H          0.27209000       0.59728700       0.12911200
   100  H          0.72791000       0.09728700       0.37088800
   101  H          0.70049400       0.33568300       0.77225700
   102  H          0.29950600       0.83568300       0.72774300
   103  H          0.29950600       0.66431700       0.22774300
   104  H          0.70049400       0.16431700       0.27225700
   105  C          0.85912700       0.47512000       0.70798120
   106  C          0.14087300       0.97512000       0.79201880
   107  C          0.14087300       0.52488000       0.29201880
   108  C          0.85912700       0.02488000       0.20798120
   109  H          0.89104400       0.39809800       0.70913700
   110  H          0.10895600       0.89809800       0.79086300
   111  H          0.10895600       0.60190200       0.29086300
   112  H          0.89104400       0.10190200       0.20913700
   113  H          0.84259600       0.48308600       0.64276400
   114  H          0.15740400      -0.01691400       0.85723600
   115  H          0.15740400       0.51691400       0.35723600
   116  H          0.84259600       0.01691400       0.14276400
   117  C          0.87995800       0.65292000       0.73989130
   118  C          0.12004200       0.15292000       0.76010870
   119  C          0.12004200       0.34708000       0.26010870
   120  C          0.87995800       0.84708000       0.23989130
   121  H          0.89357800       0.64950700       0.80668600
   122  H          0.10642200       0.14950700       0.69331400
   123  H          0.10642200       0.35049300       0.19331400
   124  H          0.89357800       0.85049300       0.30668600
   125  H          0.84927000       0.73484300       0.73172300
   126  H          0.15073000       0.23484300       0.76827700
   127  H          0.15073000       0.26515700       0.26827700
   128  H          0.84927000       0.76515700       0.23172300
   129  C          0.89723700       0.30773000       0.89215120
   130  C          0.10276300       0.80773000       0.60784880
   131  C          0.10276300       0.69227000       0.10784880
   132  C          0.89723700       0.19227000       0.39215120
   133  H          0.92359800       0.37176400       0.85820800
   134  H          0.07640200       0.87176400       0.64179200
   135  H          0.07640200       0.62823600       0.14179200
   136  H          0.92359800       0.12823600       0.35820800
   137  H          0.89738500       0.18827700       0.87148100
   138  H          0.10261500       0.68827700       0.62851900
   139  H          0.10261500       0.81172300       0.12851900
   140  H          0.89738500       0.31172300       0.37148100
   141  C          0.76444700       0.50842000       0.75902120
   142  C          0.23555300       0.00842000       0.74097880
   143  C          0.23555300       0.49158000       0.24097880
   144  C          0.76444700      -0.00842000       0.25902120
   145  H          0.77450900       0.62005400       0.78678200
   146  H          0.22549100       0.12005400       0.71321800
   147  H          0.22549100       0.37994600       0.21321800
   148  H          0.77450900       0.87994600       0.28678200
   149  H          0.75241500       0.52684700       0.69236700
   150  H          0.24758500       0.02684700       0.80763300
   151  H          0.24758500       0.47315300       0.30763300
   152  H          0.75241500       0.97315300       0.19236700
   153  C          0.76079900       0.01843000       0.59979140
   154  C          0.23920100       0.51843000       0.90020860
   155  C          0.23920100       0.98157000       0.40020860
   156  C          0.76079900       0.48157000       0.09979140
   157  H          0.74760700       0.01698000       0.53278800
   158  H          0.25239300       0.51698000       0.96721200
   159  H          0.25239300      -0.01698000       0.46721200
   160  H          0.74760700       0.48302000       0.03278800
   161  H          0.79591000       0.95562500       0.60788000
   162  H          0.20409000       0.45562500       0.89212000
   163  H          0.20409000       0.04437500       0.39212000
   164  H          0.79591000       0.54437500       0.10788000
   165  C          0.71864100       0.92507000       0.65354160
   166  C          0.28135900       0.42507000       0.84645840
   167  C          0.28135900       0.07493000       0.34645840
   168  C          0.71864100       0.57493000       0.15354160
   169  H          0.71271100       0.81079400       0.62825200
   170  H          0.28728900       0.31079400       0.87174800
   171  H          0.28728900       0.18920600       0.37174800
   172  H          0.71271100       0.68920600       0.12825200
   173  H          0.68388900      -0.01261200       0.64715400
   174  H          0.31611100       0.48738800       0.85284600
   175  H          0.31611100       0.01261200       0.35284600
   176  H          0.68388900       0.51261200       0.14715400
   177  H          0.73256300       0.91796100       0.71936500
   178  H          0.26743700       0.41796100       0.78063500
   179  H          0.26743700       0.08203900       0.28063500
   180  H          0.73256300       0.58203900       0.21936500
   181  C          0.92674800       0.71193000       0.68282140
   182  C          0.07325200       0.21193000       0.81717860
   183  C          0.07325200       0.28807000       0.31717860
   184  C          0.92674800       0.78807000       0.18282140
   185  H          0.95783200       0.63172600       0.69281500
   186  H          0.04216800       0.13172600       0.80718500
   187  H          0.04216800       0.36827400       0.30718500
   188  H          0.95783200       0.86827400       0.19281500
   189  H          0.91341900       0.71059500       0.61587400
   190  H          0.08658100       0.21059500       0.88412600
   191  H          0.08658100       0.28940500       0.38412600
   192  H          0.91341900       0.78940500       0.11587400
   193  C          0.66975800       0.57413000       0.80708150
   194  C          0.33024200       0.07413000       0.69291850
   195  C          0.33024200       0.42587000       0.19291850
   196  C          0.66975800       0.92587000       0.30708150
   197  H          0.68620500       0.68093400       0.83256500
   198  H          0.31379500       0.18093400       0.66743500
   199  H          0.31379500       0.31906600       0.16743500
   200  H          0.68620500       0.81906600       0.33256500
   201  H          0.65381700       0.59614300       0.74253600
   202  H          0.34618300       0.09614300       0.75746400
   203  H          0.34618300       0.40385700       0.25746400
   204  H          0.65381700       0.90385700       0.24253600
   205  C          0.94697800       0.89263000       0.71087140
   206  C          0.05302200       0.39263000       0.78912860
   207  C          0.05302200       0.10737000       0.28912860
   208  C          0.94697800       0.60737000       0.21087140
   209  H          0.97787700       0.92283500       0.67622500
   210  H          0.02212300       0.42283500       0.82377500
   211  H          0.02212300       0.07716500       0.32377500
   212  H          0.97787700       0.57716500       0.17622500
   213  H          0.95877500       0.89551400       0.77762600
   214  H          0.04122500       0.39551400       0.72237400
   215  H          0.04122500       0.10448600       0.22237400
   216  H          0.95877500       0.60448600       0.27762600
   217  H          0.91704500       0.97365800       0.69646000
   218  H          0.08295500       0.47365800       0.80354000
   219  H          0.08295500       0.02634200       0.30354000
   220  H          0.91704500       0.52634200       0.19646000
   221  C          0.91426800       0.31823000      -0.00175870
   222  C          0.08573200       0.81823000       0.50175870
   223  C          0.08573200       0.68177000       0.00175870
   224  C          0.91426800       0.18177000       0.49824130
   225  H          0.91387600       0.43825900       0.01773800
   226  H          0.08612400       0.93825900       0.48226200
   227  H          0.08612400       0.56174100       0.98226200
   228  H          0.91387600       0.06174100       0.51773800
   229  H          0.88681400       0.25692100       0.03119600
   230  H          0.11318600       0.75692100       0.46880400
   231  H          0.11318600       0.74307900       0.96880400
   232  H          0.88681400       0.24307900       0.53119600
   233  C          0.62333900       0.51823000       0.86634170
   234  C          0.37666100       0.01823000       0.63365830
   235  C          0.37666100       0.48177000       0.13365830
   236  C          0.62333900       0.98177000       0.36634170
   237  H          0.60635900       0.41391600       0.84040600
   238  H          0.39364100       0.91391600       0.65959400
   239  H          0.39364100       0.58608400       0.15959400
   240  H          0.60635900       0.08608400       0.34040600
   241  H          0.59557100       0.60753300       0.86539400
   242  H          0.40442900       0.10753300       0.63460600
   243  H          0.40442900       0.39246700       0.13460600
   244  H          0.59557100       0.89246700       0.36539400
   245  H          0.63887600       0.49779900       0.93048500
   246  H          0.36112400      -0.00220100       0.56951500
   247  H          0.36112400       0.50220100       0.06951500
   248  H          0.63887600       0.00220100       0.43048500
   249  C          0.97154100       0.24333000       0.02773160
   250  C          0.02845900       0.74333000       0.47226840
   251  C          0.02845900       0.75667000       0.97226840
   252  C          0.97154100       0.25667000       0.52773160
   253  H         -0.00092800       0.30424700      -0.00390300
   254  H          0.00092800       0.80424700       0.50390300
   255  H          0.00092800       0.69575300       0.00390300
   256  H         -0.00092800       0.19575300       0.49609700
   257  H          0.97192300       0.12330400       0.01072500
   258  H          0.02807700       0.62330400       0.48927500
   259  H          0.02807700       0.87669600       0.98927500
   260  H          0.97192300       0.37669600       0.51072500
   261  H          0.98001600       0.25484900       0.09509300
   262  H          0.01998400       0.75484900       0.40490700
   263  H          0.01998400       0.74515100       0.90490700
   264  H          0.98001600       0.24515100       0.59509300
