data_XUXLUA
_symmetry_space_group_name_H-M    'P1'
_symmetry_Int_Tables_number       1
loop_
_symmetry_equiv_pos_site_id
_symmetry_equiv_pos_as_xyz
1 x,y,z
_cell_length_a                   7.90037
_cell_length_b                   8.15538
_cell_length_c                   8.86617
_cell_angle_alpha                66.28001
_cell_angle_beta                 76.8702
_cell_angle_gamma                84.5442
loop_
_atom_site_label
_atom_site_type_symbol
_atom_site_fract_x
_atom_site_fract_y
_atom_site_fract_z
     1  I          0.17347600       0.71538600       0.11715500
     2  I          0.82652400       0.28461400       0.88284500
     3  I          0.16828600       0.14083600       0.12890600
     4  I          0.83171400       0.85916400       0.87109400
     5  C          0.06259000       0.97421000       0.04428000
     6  C          0.93741000       0.02579000       0.95572000
     7  O          0.31147000       0.37647000       0.22647000
     8  O          0.68853000       0.62353000       0.77353000
     9  N          0.43868000       0.35398000       0.30578000
    10  N          0.56132000       0.64602000       0.69422000
    11  C          0.41381000       0.25121100       0.47489000
    12  C          0.58619000       0.74878900       0.52511000
    13  C          0.55061100       0.23191300       0.55321000
    14  C          0.44938900       0.76808700       0.44679000
    15  H          0.53461400       0.16432100       0.67117300
    16  H          0.46538600       0.83567900       0.32882700
    17  C          0.70971100       0.30811300       0.46471100
    18  C          0.29028900       0.69188700       0.53528900
    19  H          0.80450200       0.29019900       0.51926700
    20  H          0.19549800       0.70980100       0.48073300
    21  C          0.72841100       0.41191200       0.29361000
    22  C          0.27158900       0.58808800       0.70639000
    23  H          0.83674600       0.46680800       0.22963300
    24  H          0.16325400       0.53319200       0.77036700
    25  C          0.59211000       0.43471000       0.21799000
    26  C          0.40789000       0.56529000       0.78201000
    27  H          0.60470100       0.50867600       0.10149700
    28  H          0.39529900       0.49132400       0.89850300
    29  C          0.23901100       0.17161400       0.55951200
    30  C          0.76098900       0.82838600       0.44048800
    31  H          0.15265000       0.26743100       0.55318100
    32  H          0.84735000       0.73256900       0.44681900
    33  H          0.23873500       0.09567700       0.67785300
    34  H          0.76126500       0.90432300       0.32214700
    35  H          0.21024400       0.09910000       0.50357700
    36  H          0.78975600       0.90090000       0.49642300
