data_XUXXUK
_symmetry_space_group_name_H-M    'P1'
_symmetry_Int_Tables_number       1
loop_
_symmetry_equiv_pos_site_id
_symmetry_equiv_pos_as_xyz
1 x,y,z
_cell_length_a                   11.33353
_cell_length_b                   9.46382
_cell_length_c                   9.86213
_cell_angle_alpha                90.0
_cell_angle_beta                 105.17901
_cell_angle_gamma                90.0
loop_
_atom_site_label
_atom_site_type_symbol
_atom_site_fract_x
_atom_site_fract_y
_atom_site_fract_z
     1  I          0.18878912       0.83039414       0.01102414
     2  I          0.81121088       0.33039414       0.48897586
     3  I          0.81121088       0.16960586      -0.01102414
     4  I          0.18878912       0.66960586       0.51102414
     5  O          0.58281140       0.85669150       0.69401170
     6  O          0.41718860       0.35669150       0.80598830
     7  O          0.41718860       0.14330850       0.30598830
     8  O          0.58281140       0.64330850       0.19401170
     9  N          0.47083150       0.72891170       0.81015180
    10  N          0.52916850       0.22891170       0.68984820
    11  N          0.52916850       0.27108830       0.18984820
    12  N          0.47083150       0.77108830       0.31015180
    13  H          0.50620000       0.65040000       0.79340000
    14  H          0.49380000       0.15040000       0.70660000
    15  H          0.49380000       0.34960000       0.20660000
    16  H          0.50620000       0.84960000       0.29340000
    17  N          0.45422150       0.97661170       0.79496180
    18  N          0.54577850       0.47661170       0.70503820
    19  N          0.54577850       0.02338830       0.20503820
    20  N          0.45422150       0.52338830       0.29496180
    21  N          0.32347160       0.09568170       0.89481190
    22  N          0.67652840       0.59568170       0.60518810
    23  N          0.67652840       0.90431830       0.10518810
    24  N          0.32347160       0.40431830       0.39481190
    25  H          0.34990000       0.17510000       0.86680000
    26  H          0.65010000       0.67510000       0.63320000
    27  H          0.65010000       0.82490000       0.13320000
    28  H          0.34990000       0.32490000       0.36680000
    29  H          0.26710000       0.09760000       0.94150000
    30  H          0.73290000       0.59760000       0.55850000
    31  H          0.73290000       0.90240000       0.05850000
    32  H          0.26710000       0.40240000       0.44150000
    33  C          0.50609180       0.85602000       0.76362000
    34  C          0.49390820       0.35602000       0.73638000
    35  C          0.49390820       0.14398000       0.23638000
    36  C          0.50609180       0.64398000       0.26362000
    37  C          0.36858170       0.97282000       0.86652000
    38  C          0.63141830       0.47282000       0.63348000
    39  C          0.63141830       0.02718000       0.13348000
    40  C          0.36858170       0.52718000       0.36652000
    41  C          0.32898180       0.84052000       0.91072000
    42  C          0.67101820       0.34052000       0.58928000
    43  C          0.67101820       0.15948000       0.08928000
    44  C          0.32898180       0.65948000       0.41072000
    45  C          0.38368180       0.72192000       0.88052000
    46  C          0.61631820       0.22192000       0.61948000
    47  C          0.61631820       0.27808000       0.11948000
    48  C          0.38368180       0.77808000       0.38052000
    49  H          0.36050000       0.63260000       0.90920000
    50  H          0.63950000       0.13260000       0.59080000
    51  H          0.63950000       0.36740000       0.09080000
    52  H          0.36050000       0.86740000       0.40920000
    53  S          0.06123500       0.35242600       0.90665700
    54  S          0.93876500       0.85242600       0.59334300
    55  S          0.93876500       0.64757400       0.09334300
    56  S          0.06123500       0.14757400       0.40665700
    57  C          0.18053000       0.39033000       0.05833000
    58  C          0.81947000       0.89033000       0.44167000
    59  C          0.81947000       0.60967000       0.94167000
    60  C          0.18053000       0.10967000       0.55833000
    61  H          0.16390000       0.34320000       0.13990000
    62  H          0.83610000       0.84320000       0.36010000
    63  H          0.83610000       0.65680000       0.86010000
    64  H          0.16390000       0.15680000       0.63990000
    65  H          0.18530000       0.49270000       0.07410000
    66  H          0.81470000      -0.00730000       0.42590000
    67  H          0.81470000       0.50730000       0.92590000
    68  H          0.18530000       0.00730000       0.57410000
    69  H          0.25830000       0.35620000       0.04480000
    70  H          0.74170000       0.85620000       0.45520000
    71  H          0.74170000       0.64380000       0.95520000
    72  H          0.25830000       0.14380000       0.54480000
    73  C          0.12212000       0.44032000       0.78072000
    74  C          0.87788000       0.94032000       0.71928000
    75  C          0.87788000       0.55968000       0.21928000
    76  C          0.12212000       0.05968000       0.28072000
    77  H          0.20650000       0.40910000       0.79100000
    78  H          0.79350000       0.90910000       0.70900000
    79  H          0.79350000       0.59090000       0.20900000
    80  H          0.20650000       0.09090000       0.29100000
    81  H          0.12100000       0.54260000       0.79570000
    82  H          0.87900000       0.04260000       0.70430000
    83  H          0.87900000       0.45740000       0.20430000
    84  H          0.12100000       0.95740000       0.29570000
    85  H          0.07250000       0.41760000       0.68590000
    86  H          0.92750000       0.91760000       0.81410000
    87  H          0.92750000       0.58240000       0.31410000
    88  H          0.07250000       0.08240000       0.18590000
    89  O          0.06803160       0.19595170       0.88282000
    90  O          0.93196840       0.69595170       0.61718000
    91  O          0.93196840       0.80404830       0.11718000
    92  O          0.06803160       0.30404830       0.38282000
