data_XUXYEV
_symmetry_space_group_name_H-M    'P1'
_symmetry_Int_Tables_number       1
loop_
_symmetry_equiv_pos_site_id
_symmetry_equiv_pos_as_xyz
1 x,y,z
_cell_length_a                   6.68416
_cell_length_b                   10.937911
_cell_length_c                   22.9772
_cell_angle_alpha                90.0
_cell_angle_beta                 90.0
_cell_angle_gamma                90.0
loop_
_atom_site_label
_atom_site_type_symbol
_atom_site_fract_x
_atom_site_fract_y
_atom_site_fract_z
     1  Br         0.26660500       0.20023300       0.03846015
     2  Br         0.23339500       0.79976700       0.53846015
     3  Br         0.73339500       0.70023300       0.46153985
     4  Br         0.76660500       0.29976700       0.96153985
     5  O          0.81353000       0.80748000       0.96898100
     6  O          0.68647000       0.19252000       0.46898100
     7  O          0.18647000       0.30748000       0.53101900
     8  O          0.31353000       0.69252000       0.03101900
     9  O          0.74633000       0.26468180       0.15240900
    10  O          0.75367000       0.73531820       0.65240900
    11  O          0.25367000       0.76468180       0.34759100
    12  O          0.24633000       0.23531820       0.84759100
    13  O          0.40173000       0.04642000       0.21343100
    14  O          0.09827000       0.95358000       0.71343100
    15  O          0.59827000       0.54642000       0.28656900
    16  O          0.90173000       0.45358000       0.78656900
    17  H          0.31340000       0.09590000       0.22100000
    18  H          0.18660000       0.90410000       0.72100000
    19  H          0.68660000       0.59590000       0.27900000
    20  H          0.81340000       0.40410000       0.77900000
    21  O          0.44653000       0.27552000       0.25682100
    22  O          0.05347000       0.72448000       0.75682100
    23  O          0.55347000       0.77552000       0.24317900
    24  O          0.94653000       0.22448000       0.74317900
    25  H          0.41660000       0.27110000       0.29140000
    26  H          0.08340000       0.72890000       0.79140000
    27  H          0.58340000       0.77110000       0.20860000
    28  H          0.91660000       0.22890000       0.70860000
    29  O          0.04094000       0.14422000       0.22139110
    30  O          0.45906000       0.85578000       0.72139110
    31  O          0.95906000       0.64422000       0.27860890
    32  O          0.54094000       0.35578000       0.77860890
    33  H          0.01160000       0.11330000       0.18701600
    34  H          0.48840000       0.88670000       0.68701600
    35  H         -0.01160000       0.61330000       0.31298400
    36  H          0.51160000       0.38670000       0.81298400
    37  N          0.00644000       0.85687000       0.04733110
    38  N          0.49356000       0.14313000       0.54733110
    39  N         -0.00644000       0.35687000       0.45266890
    40  N          0.50644000       0.64313000       0.95266890
    41  H          0.09000000       0.80120000       0.03710000
    42  H          0.41000000       0.19880000       0.53710000
    43  H          0.91000000       0.30120000       0.46290000
    44  H          0.59000000       0.69880000       0.96290000
    45  N          0.21864000       0.89008000       0.12421110
    46  N          0.28136000       0.10992000       0.62421110
    47  N          0.78136000       0.39008000       0.37578890
    48  N          0.71864000       0.60992000       0.87578890
    49  H          0.25100000       0.92610000       0.15610000
    50  H          0.24900000       0.07390000       0.65610000
    51  H          0.74900000       0.42610000       0.34390000
    52  H          0.75100000       0.57390000       0.84390000
    53  H          0.29520000       0.83460000       0.10990000
    54  H          0.20480000       0.16540000       0.60990000
    55  H          0.70480000       0.33460000       0.39010000
    56  H          0.79520000       0.66540000       0.89010000
    57  N          0.93024000       0.00583000       0.11868120
    58  N          0.56976000      -0.00583000       0.61868120
    59  N          0.06976000       0.50583000       0.38131880
    60  N          0.43024000       0.49417000       0.88131880
    61  N          0.54224000       0.01823000       0.00946120
    62  N          0.95776000       0.98177000       0.50946120
    63  N          0.45776000       0.51823000       0.49053880
    64  N          0.04224000       0.48177000       0.99053880
    65  N          0.61454000       0.10892000       0.09529120
    66  N          0.88546000       0.89108000       0.59529120
    67  N          0.38546000       0.60892000       0.40470880
    68  N          0.11454000       0.39108000       0.90470880
    69  C          0.04885000       0.92047000       0.09686140
    70  C          0.45115000       0.07953000       0.59686140
    71  C          0.95115000       0.42047000       0.40313860
    72  C          0.54885000       0.57953000       0.90313860
    73  C          0.76695000       0.02533000       0.08463130
    74  C          0.73305000       0.97467000       0.58463130
    75  C          0.23305000       0.52533000       0.41536870
    76  C          0.26695000       0.47467000       0.91536870
    77  C          0.71765000       0.97057000       0.03230140
    78  C          0.78235000       0.02943000       0.53230140
    79  C          0.28235000       0.47057000       0.46769860
    80  C          0.21765000       0.52943000       0.96769860
    81  C          0.83995000       0.87387000       0.01193140
    82  C          0.66005000       0.12613000       0.51193140
    83  C          0.16005000       0.37387000       0.48806860
    84  C          0.33995000       0.62613000       0.98806860
    85  C          0.48945000       0.09823000       0.04755140
    86  C          0.01055000       0.90177000       0.54755140
    87  C          0.51055000       0.59823000       0.45244860
    88  C         -0.01055000       0.40177000       0.95244860
    89  C          0.58565000       0.18073000       0.14727140
    90  C          0.91435000       0.81927000       0.64727140
    91  C          0.41435000       0.68073000       0.35272860
    92  C          0.08565000       0.31927000       0.85272860
    93  H          0.46010000       0.22640000       0.14370000
    94  H          0.03990000       0.77360000       0.64370000
    95  H          0.53990000       0.72640000       0.35630000
    96  H          0.96010000       0.27360000       0.85630000
    97  C          0.58265000       0.10853000       0.20399140
    98  C          0.91735000       0.89147000       0.70399140
    99  C          0.41735000       0.60853000       0.29600860
   100  C          0.08265000       0.39147000       0.79600860
   101  H          0.69320000       0.04970000       0.20410000
   102  H          0.80680000       0.95030000       0.70410000
   103  H          0.30680000       0.54970000       0.29590000
   104  H          0.19320000       0.45030000       0.79590000
   105  C          0.62754000       0.21123000       0.24694140
   106  C          0.87246000       0.78877000       0.74694140
   107  C          0.37246000       0.71123000       0.25305860
   108  C          0.12754000       0.28877000       0.75305860
   109  H          0.68540000       0.18010000       0.28320000
   110  H          0.81460000       0.81990000       0.78320000
   111  H          0.31460000       0.68010000       0.21680000
   112  H          0.18540000       0.31990000       0.71680000
   113  C          0.77345000       0.29213000       0.21396130
   114  C          0.72655000       0.70787000       0.71396130
   115  C          0.22655000       0.79213000       0.28603870
   116  C          0.27345000       0.20787000       0.78603870
   117  H          0.74060000       0.37820000       0.22110000
   118  H          0.75940000       0.62180000       0.72110000
   119  H          0.25940000       0.87820000       0.27890000
   120  H          0.24060000       0.12180000       0.77890000
   121  C         -0.00795000       0.27073000       0.22720160
   122  C          0.50795000       0.72927000       0.72720160
   123  C          0.00795000       0.77073000       0.27279840
   124  C          0.49205000       0.22927000       0.77279840
   125  H          0.07360000       0.31840000       0.20070000
   126  H          0.42640000       0.68160000       0.70070000
   127  H          0.92640000       0.81840000       0.29930000
   128  H          0.57360000       0.18160000       0.79930000
   129  H          0.02090000       0.29740000       0.26660000
   130  H          0.47910000       0.70260000       0.76660000
   131  H          0.97910000       0.79740000       0.23340000
   132  H          0.52090000       0.20260000       0.73340000
   133  S          0.31110130       0.13544900       0.40230400
   134  S          0.18889870       0.86455100       0.90230400
   135  S          0.68889870       0.63544900       0.09769600
   136  S          0.81110130       0.36455100       0.59769600
   137  O          0.36894000       0.24912000       0.36975100
   138  O          0.13106000       0.75088000       0.86975100
   139  O          0.63106000       0.74912000       0.13024900
   140  O          0.86894000       0.25088000       0.63024900
   141  C          0.47656000       0.01903000       0.37794180
   142  C          0.02344000       0.98097000       0.87794180
   143  C          0.52344000       0.51903000       0.12205820
   144  C          0.97656000       0.48097000       0.62205820
   145  H          0.47120000       0.01380000       0.33630000
   146  H          0.02880000       0.98620000       0.83630000
   147  H          0.52880000       0.51380000       0.16370000
   148  H          0.97120000       0.48620000       0.66370000
   149  H          0.43730000       0.94210000       0.39450000
   150  H          0.06270000       0.05790000       0.89450000
   151  H          0.56270000       0.44210000       0.10550000
   152  H          0.93730000       0.55790000       0.60550000
   153  H          0.61050000       0.03820000       0.38990000
   154  H          0.88950000       0.96180000       0.88990000
   155  H          0.38950000       0.53820000       0.11010000
   156  H          0.11050000       0.46180000       0.61010000
   157  C          0.08826000       0.07854000       0.36847160
   158  C          0.41174000       0.92146000       0.86847160
   159  C          0.91174000       0.57854000       0.13152840
   160  C          0.58826000       0.42146000       0.63152840
   161  H         -0.02040000       0.13380000       0.37590000
   162  H          0.52040000       0.86620000       0.87590000
   163  H          0.02040000       0.63380000       0.12410000
   164  H          0.47960000       0.36620000       0.62410000
   165  H          0.05650000      -0.00050000       0.38410000
   166  H          0.44350000       0.00050000       0.88410000
   167  H          0.94350000       0.49950000       0.11590000
   168  H          0.55650000       0.50050000       0.61590000
   169  H          0.10910000       0.07180000       0.32730000
   170  H          0.39090000       0.92820000       0.82730000
   171  H          0.89090000       0.57180000       0.17270000
   172  H          0.60910000       0.42820000       0.67270000
