data_XUYCAW
_symmetry_space_group_name_H-M    'P1'
_symmetry_Int_Tables_number       1
loop_
_symmetry_equiv_pos_site_id
_symmetry_equiv_pos_as_xyz
1 x,y,z
_cell_length_a                   10.62049
_cell_length_b                   10.90401
_cell_length_c                   12.48641
_cell_angle_alpha                79.7347
_cell_angle_beta                 82.3667
_cell_angle_gamma                72.7177
loop_
_atom_site_label
_atom_site_type_symbol
_atom_site_fract_x
_atom_site_fract_y
_atom_site_fract_z
     1  C          0.36713000       0.98547000       0.85052000
     2  C          0.63287000       0.01453000       0.14948000
     3  C          0.48173000       0.98607000       0.78202000
     4  C          0.51827000       0.01393000       0.21798000
     5  H          0.56620000       0.93810000       0.80540000
     6  H          0.43380000       0.06190000       0.19460000
     7  C          0.46943000       0.05823000       0.67892000
     8  C          0.53057000       0.94177000       0.32108000
     9  C          0.24283000       0.12452000       0.70802000
    10  C          0.75717000       0.87548000       0.29198000
    11  C          0.24493000       0.05623000       0.81392000
    12  C          0.75507000       0.94377000       0.18608000
    13  H          0.16530000       0.05810000       0.85930000
    14  H          0.83470000       0.94190000       0.14070000
    15  C          0.11823000       0.20353000       0.66322000
    16  C          0.88177000       0.79647000       0.33678000
    17  C          0.09833000       0.26043000       0.55812000
    18  C          0.90167000       0.73957000       0.44188000
    19  H          0.16170000       0.25660000       0.49660000
    20  H          0.83830000       0.74340000       0.50340000
    21  C          0.89197000       0.40013000       0.47432000
    22  C          0.10803000       0.59987000       0.52568000
    23  C          0.75717000       0.45943000       0.49413000
    24  C          0.24283000       0.54057000       0.50587000
    25  H          0.71520000       0.44980000       0.56600000
    26  H          0.28480000       0.55020000       0.43400000
    27  C          0.68507000       0.53203000       0.40893000
    28  C          0.31493000       0.46797000       0.59107000
    29  H          0.59330000       0.57290000       0.42210000
    30  H          0.40670000       0.42710000       0.57790000
    31  C          0.74607000       0.54563000       0.30433000
    32  C          0.25393000       0.45437000       0.69567000
    33  C          0.88037000       0.48813000       0.28443000
    34  C          0.11963000       0.51187000       0.71557000
    35  H          0.92240000       0.49830000       0.21260000
    36  H          0.07760000       0.50170000       0.78740000
    37  C          0.95257000       0.41573000       0.37023000
    38  C          0.04743000       0.58427000       0.62977000
    39  H          0.04480000       0.37640000       0.35720000
    40  H          0.95520000       0.62360000       0.64280000
    41  C          0.58463000       0.06923000       0.60312000
    42  C          0.41537000       0.93077000       0.39688000
    43  C          0.58623000       0.13343000       0.49912000
    44  C          0.41377000       0.86657000       0.50088000
    45  H          0.51260000       0.18050000       0.45880000
    46  H          0.48740000       0.81950000       0.54120000
    47  C          0.77543000       0.15473000       0.36192000
    48  C          0.22457000       0.84527000       0.63808000
    49  C          0.69733000       0.24223000       0.28612000
    50  C          0.30267000       0.75777000       0.71388000
    51  H          0.60580000       0.27940000       0.30490000
    52  H          0.39420000       0.72060000       0.69510000
    53  C          0.75363000       0.27533000       0.18243000
    54  C          0.24637000       0.72467000       0.81757000
    55  H          0.70060000       0.33430000       0.12930000
    56  H          0.29940000       0.66570000       0.87070000
    57  C          0.88773000       0.22173000       0.15663000
    58  C          0.11227000       0.77827000       0.84337000
    59  C          0.96603000       0.13663000       0.23323000
    60  C          0.03397000       0.86337000       0.76677000
    61  H          0.05790000       0.10160000       0.21470000
    62  H          0.94210000       0.89840000       0.78530000
    63  C          0.91073000       0.10213000       0.33723000
    64  C          0.08927000       0.89787000       0.66277000
    65  H          0.96400000       0.04380000       0.39050000
    66  H          0.03600000       0.95620000       0.60950000
    67  C          0.37973000       0.90637000       0.96082000
    68  C          0.62027000       0.09363000       0.03918000
    69  C          0.26923000       0.85577000       0.13163000
    70  C          0.73077000       0.14423000       0.86837000
    71  H          0.18120000       0.88080000       0.17070000
    72  H          0.81880000       0.11920000       0.82930000
    73  H          0.33400000       0.87290000       0.17170000
    74  H          0.66600000       0.12710000       0.82830000
    75  H          0.29390000       0.76310000       0.12560000
    76  H          0.70610000       0.23690000       0.87440000
    77  I          0.63718800       0.65149618       0.17368218
    78  I          0.36281200       0.34850382       0.82631782
    79  I          0.96781200       0.26756200      -0.00256018
    80  I          0.03218800       0.73243800       0.00256018
    81  N          0.35192000       0.12522000       0.64022000
    82  N          0.64808000       0.87478000       0.35978000
    83  N          0.71253000       0.01443000       0.63062000
    84  N          0.28747000       0.98557000       0.36938000
    85  N          0.79212000       0.04273000       0.54742000
    86  N          0.20788000       0.95727000       0.45258000
    87  N          0.71642000       0.11492000       0.46612000
    88  N          0.28358000       0.88508000       0.53388000
    89  N          0.00183000       0.23413000       0.72552000
    90  N         -0.00183000       0.76587000       0.27448000
    91  N          0.90987000       0.30733000       0.66422000
    92  N          0.09013000       0.69267000       0.33578000
    93  N          0.96728000       0.32362000       0.56132000
    94  N          0.03272000       0.67638000       0.43868000
    95  O          0.48132000       0.82907000       0.98852000
    96  O          0.51868000       0.17093000       0.01148000
    97  O          0.26702000       0.93008000       0.02377190
    98  O          0.73298000       0.06992000       0.97622810
    99  C          0.68173000       0.64267000       0.77234000
   100  C          0.31827000       0.35733000       0.22766000
   101  C          0.62816000       0.54105000       0.84206000
   102  C          0.37184000       0.45895000       0.15794000
   103  H          0.57290000       0.51310000       0.79960000
   104  H          0.42710000       0.48690000       0.20040000
   105  H          0.57450000       0.57640000       0.90550000
   106  H          0.42550000       0.42360000       0.09450000
   107  H          0.70140000       0.46660000       0.86670000
   108  H          0.29860000       0.53340000       0.13330000
   109  C          0.76793000       0.69476000       0.82613000
   110  C          0.23207000       0.30524000       0.17387000
   111  H          0.79870000       0.76050000       0.77390000
   112  H          0.20130000       0.23950000       0.22610000
   113  H          0.84430000       0.62390000       0.85090000
   114  H          0.15570000       0.37610000       0.14910000
   115  H          0.71750000       0.73440000       0.88900000
   116  H          0.28250000       0.26560000       0.11100000
   117  O          0.65553000       0.68237000       0.67943000
   118  O          0.34447000       0.31763000       0.32057000
