data_YABNIC
_symmetry_space_group_name_H-M    'P1'
_symmetry_Int_Tables_number       1
loop_
_symmetry_equiv_pos_site_id
_symmetry_equiv_pos_as_xyz
1 x,y,z
_cell_length_a                   6.201012
_cell_length_b                   7.438015
_cell_length_c                   26.1305
_cell_angle_alpha                90.0
_cell_angle_beta                 95.783
_cell_angle_gamma                90.0
loop_
_atom_site_label
_atom_site_type_symbol
_atom_site_fract_x
_atom_site_fract_y
_atom_site_fract_z
     1  Br         0.16819600      -0.01326600       0.39380412
     2  Br         0.83180400       0.48673400       0.10619588
     3  Br         0.83180400       0.01326600       0.60619588
     4  Br         0.16819600       0.51326600       0.89380412
     5  F          0.63293000       0.13443000       0.41187700
     6  F          0.36707000       0.63443000       0.08812300
     7  F          0.36707000       0.86557000       0.58812300
     8  F          0.63293000       0.36557000       0.91187700
     9  F          0.89313000       0.15872000       0.49910800
    10  F          0.10687000       0.65872000       0.00089200
    11  F          0.10687000       0.84128000       0.50089200
    12  F          0.89313000       0.34128000      -0.00089200
    13  C          0.56505000       0.06694000       0.45512120
    14  C          0.43495000       0.56694000       0.04487880
    15  C          0.43495000       0.93306000       0.54487880
    16  C          0.56505000       0.43306000       0.95512120
    17  C          0.69905000       0.07804000       0.50012130
    18  C          0.30095000       0.57804000      -0.00012130
    19  C          0.30095000       0.92196000       0.49987870
    20  C          0.69905000       0.42196000       0.00012130
    21  C          0.36096000      -0.01056000       0.45402140
    22  C          0.63904000       0.48944000       0.04597860
    23  C          0.63904000       0.01056000       0.54597860
    24  C          0.36096000       0.51056000       0.95402140
    25  C          0.62305000       0.55694000       0.46013120
    26  C          0.37695000       0.05694000       0.03986880
    27  C          0.37695000       0.44306000       0.53986880
    28  C          0.62305000       0.94306000       0.96013120
    29  C          0.64865000       0.59954000       0.36865130
    30  C          0.35135000       0.09954000       0.13134870
    31  C          0.35135000       0.40046000       0.63134870
    32  C          0.64865000       0.90046000       0.86865130
    33  H          0.72840000       0.63540000       0.34210000
    34  H          0.27160000       0.13540000       0.15790000
    35  H          0.27160000       0.36460000       0.65790000
    36  H          0.72840000       0.86460000       0.84210000
    37  C          0.73905000       0.61204000       0.41818130
    38  C          0.26095000       0.11204000       0.08181870
    39  C          0.26095000       0.38796000       0.58181870
    40  C          0.73905000       0.88796000       0.91818130
    41  H          0.87880000       0.65710000       0.42490000
    42  H          0.12120000       0.15710000       0.07510000
    43  H          0.12120000       0.34290000       0.57510000
    44  H          0.87880000       0.84290000       0.92490000
    45  C          0.33636000       0.51954000       0.30231130
    46  C          0.66364000       0.01954000       0.19768870
    47  C          0.66364000       0.48046000       0.69768870
    48  C          0.33636000       0.98046000       0.80231130
    49  C          0.43336000       0.53254000       0.35654130
    50  C          0.56664000       0.03254000       0.14345870
    51  C          0.56664000       0.46746000       0.64345870
    52  C          0.43336000       0.96746000       0.85654130
    53  C          0.71215000       0.56344000       0.51128120
    54  C          0.28785000       0.06344000       0.98871880
    55  C          0.28785000       0.43656000       0.48871880
    56  C          0.71215000       0.93656000       0.01128120
    57  H          0.85300000       0.60520000       0.51880000
    58  H          0.14700000       0.10520000       0.98120000
    59  H          0.14700000       0.39480000       0.48120000
    60  H          0.85300000       0.89480000       0.01880000
    61  C          0.31706000       0.48284000       0.39625140
    62  C          0.68294000      -0.01716000       0.10374860
    63  C          0.68294000       0.51716000       0.60374860
    64  C          0.31706000       0.01716000       0.89625140
    65  H          0.17540000       0.44230000       0.38880000
    66  H          0.82460000       0.94230000       0.11120000
    67  H          0.82460000       0.55770000       0.61120000
    68  H          0.17540000       0.05770000       0.88880000
    69  C          0.42486000       0.60845000       0.26227130
    70  C          0.57514000       0.10845000       0.23772870
    71  C          0.57514000       0.39155000       0.73772870
    72  C          0.42486000       0.89155000       0.76227130
    73  H          0.55020000       0.67650000       0.26890000
    74  H          0.44980000       0.17650000       0.23110000
    75  H          0.44980000       0.32350000       0.73110000
    76  H          0.55020000       0.82350000       0.76890000
    77  C          0.40626000       0.49154000       0.44835130
    78  C          0.59374000      -0.00846000       0.05164870
    79  C          0.59374000       0.50846000       0.55164870
    80  C          0.40626000       0.00846000       0.94835130
    81  C          0.06176000       0.41495000       0.23782140
    82  C          0.93824000       0.91495000       0.26217860
    83  C          0.93824000       0.58505000       0.76217860
    84  C          0.06176000       0.08505000       0.73782140
    85  H          0.93610000       0.34800000       0.22980000
    86  H          0.06390000       0.84800000       0.27020000
    87  H          0.06390000       0.65200000       0.77020000
    88  H          0.93610000       0.15200000       0.72980000
    89  N          0.14526000       0.50084000       0.19950130
    90  N          0.85474000       0.00084000       0.30049870
    91  N          0.85474000       0.49916000       0.80049870
    92  N          0.14526000      -0.00084000       0.69950130
    93  C          0.32407000       0.59425000       0.21244150
    94  C          0.67593000       0.09425000       0.28755850
    95  C          0.67593000       0.40575000       0.78755850
    96  C          0.32407000       0.90575000       0.71244150
    97  H          0.38650000       0.65440000       0.18650000
    98  H          0.61350000       0.15440000       0.31350000
    99  H          0.61350000       0.34560000       0.81350000
   100  H          0.38650000       0.84560000       0.68650000
   101  C          0.14946000       0.41845000       0.28862140
   102  C          0.85054000       0.91845000       0.21137860
   103  C          0.85054000       0.58155000       0.71137860
   104  C          0.14946000       0.08155000       0.78862140
   105  H          0.08460000       0.35410000       0.31350000
   106  H          0.91540000       0.85410000       0.18650000
   107  H          0.91540000       0.64590000       0.68650000
   108  H          0.08460000       0.14590000       0.81350000
