data_YACXUZ
_symmetry_space_group_name_H-M    'P1'
_symmetry_Int_Tables_number       1
loop_
_symmetry_equiv_pos_site_id
_symmetry_equiv_pos_as_xyz
1 x,y,z
_cell_length_a                   3.70368
_cell_length_b                   6.862112
_cell_length_c                   14.015312
_cell_angle_alpha                77.75711
_cell_angle_beta                 85.70313
_cell_angle_gamma                88.10516
loop_
_atom_site_label
_atom_site_type_symbol
_atom_site_fract_x
_atom_site_fract_y
_atom_site_fract_z
     1  N          0.27843000       0.47610190       0.27726800
     2  N          0.72157000       0.52389810       0.72273200
     3  C          0.52584000       0.84812000       0.17722110
     4  C          0.47416000       0.15188000       0.82277890
     5  H          0.61200000       0.97470000       0.14340000
     6  H          0.38800000       0.02530000       0.85660000
     7  C          0.27744000       0.53302000       0.17890100
     8  C          0.72256000       0.46698000       0.82109900
     9  C          0.14184000       0.38782000       0.12955100
    10  C          0.85816000       0.61218000       0.87044900
    11  N          0.03324000       0.27522000       0.08910900
    12  N         -0.03324000       0.72478000       0.91089100
    13  C          0.52894000       0.79362000       0.27820110
    14  C          0.47106000       0.20638000       0.72179890
    15  H          0.61530000       0.88190000       0.31480000
    16  H          0.38470000       0.11810000       0.68520000
    17  C          0.40214000       0.60602000       0.32479100
    18  C          0.59786000       0.39398000       0.67520900
    19  H          0.40400000       0.56880000       0.39400000
    20  H          0.59600000       0.43120000       0.60600000
    21  C          0.39644000       0.71682000       0.12613100
    22  C          0.60356000       0.28318000       0.87386900
    23  H          0.38920000       0.75120000       0.05700000
    24  H          0.61080000       0.24880000       0.94300000
    25  O          0.00473000       0.12881170       0.37800700
    26  O         -0.00473000       0.87118830       0.62199300
    27  O          0.24083000       0.21076180       0.50689800
    28  O          0.75917000       0.78923820       0.49310200
    29  C          0.07614000       0.10052000       0.47044100
    30  C          0.92386000       0.89948000       0.52955900
    31  H          0.10070000       0.25040000       0.34421800
    32  H          0.89930000       0.74960000       0.65578200
