data_YACYIO
_symmetry_space_group_name_H-M    'P1'
_symmetry_Int_Tables_number       1
loop_
_symmetry_equiv_pos_site_id
_symmetry_equiv_pos_as_xyz
1 x,y,z
_cell_length_a                   3.97643
_cell_length_b                   10.58031
_cell_length_c                   11.777713
_cell_angle_alpha                64.4721
_cell_angle_beta                 85.4547
_cell_angle_gamma                86.7967
loop_
_atom_site_label
_atom_site_type_symbol
_atom_site_fract_x
_atom_site_fract_y
_atom_site_fract_z
     1  O          0.47114000       0.78694130       0.15275120
     2  O          0.52886000       0.21305870       0.84724880
     3  C          0.18064000       0.65012170       0.34580150
     4  C          0.81936000       0.34987830       0.65419850
     5  H         -0.01480000       0.71320000       0.32720000
     6  H          0.01480000       0.28680000       0.67280000
     7  H          0.33450000       0.68170000       0.38760000
     8  H          0.66550000       0.31830000       0.61240000
     9  C          0.06694000       0.50429170       0.43637140
    10  C          0.93306000       0.49570830       0.56362860
    11  H          0.25590000       0.43860000       0.44830000
    12  H          0.74410000       0.56140000       0.55170000
    13  H          0.89180000       0.47670000       0.39940000
    14  H          0.10820000       0.52330000       0.60060000
    15  C          0.35164000       0.66115180       0.22360150
    16  C          0.64836000       0.33884820       0.77639850
    17  O          0.38434000       0.56684140       0.19262120
    18  O          0.61566000       0.43315860       0.80737880
    19  H          0.59170000       0.78830000       0.07430000
    20  H          0.40830000       0.21170000       0.92570000
    21  N          0.81014000       0.80383160       0.94092860
    22  N          0.18986000       0.19616840       0.05907140
    23  C          0.13494000       0.81830180       0.72021850
    24  C          0.86506000       0.18169820       0.27978150
    25  C         -0.00055000       0.69372000       0.80810830
    26  C          0.00055000       0.30628000       0.19189170
    27  H          0.01560000       0.61320000       0.79440000
    28  H         -0.01560000       0.38680000       0.20560000
    29  C          0.10825000       0.93502000       0.74313820
    30  C          0.89175000       0.06498000       0.25686180
    31  H          0.19790000       0.01970000       0.68530000
    32  H          0.80210000       0.98030000       0.31470000
    33  C          0.83935000       0.69277190       0.91687830
    34  C          0.16065000       0.30722810       0.08312170
    35  H          0.74720000       0.60950000       0.97630000
    36  H          0.25280000       0.39050000       0.02370000
    37  C          0.30565000       0.82509190       0.60485830
    38  C          0.69435000       0.17490810       0.39514170
    39  C          0.94336000       0.92262000       0.85521820
    40  C          0.05664000       0.07738000       0.14478180
    41  H          0.92450000       0.00120000       0.87160000
    42  H          0.07550000      -0.00120000       0.12840000
    43  N          0.44255000       0.83033190       0.51434840
    44  N          0.55745000       0.16966810       0.48565160
