data_YAFKOI01
_symmetry_space_group_name_H-M    'P1'
_symmetry_Int_Tables_number       1
loop_
_symmetry_equiv_pos_site_id
_symmetry_equiv_pos_as_xyz
1 x,y,z
_cell_length_a                   5.14201
_cell_length_b                   12.7243
_cell_length_c                   16.4363
_cell_angle_alpha                109.153
_cell_angle_beta                 96.003
_cell_angle_gamma                93.793
loop_
_atom_site_label
_atom_site_type_symbol
_atom_site_fract_x
_atom_site_fract_y
_atom_site_fract_z
     1  C          0.27298000       0.93764000       0.25013000
     2  C          0.72702000       0.06236000       0.74987000
     3  C          0.11109000       0.86294000       0.27243000
     4  C          0.88891000       0.13706000       0.72757000
     5  C          0.91031000       0.79844000       0.20903000
     6  C          0.08969000       0.20156000       0.79097000
     7  C          0.86702000       0.80584000       0.12713000
     8  C          0.13298000       0.19416000       0.87287000
     9  C          0.03579000       0.88244000       0.10943000
    10  C          0.96421000       0.11756000       0.89057000
    11  C          0.23709000       0.95043000       0.17053000
    12  C          0.76291000       0.04957000       0.82947000
    13  F          0.47356000      -0.00028000       0.31013180
    14  F          0.52644000       0.00028000       0.68986820
    15  F          0.74694000       0.72773000       0.22992000
    16  F          0.25306000       0.27227000       0.77008000
    17  F          0.00056000       0.89293000       0.03096180
    18  F         -0.00056000       0.10707000       0.96903820
    19  I          0.15920100       0.84894400       0.39530300
    20  I          0.84079900       0.15105600       0.60469700
    21  I          0.56146400       0.70518300       0.03258200
    22  I          0.43853600       0.29481700       0.96741800
    23  I          0.47441800       0.06804300       0.14130300
    24  I          0.52558200       0.93195700       0.85869700
    25  C          0.92778000       0.39023000       0.44172000
    26  C          0.07222000       0.60977000       0.55828000
    27  C          0.15067000       0.41323000       0.50872000
    28  C          0.84933000       0.58677000       0.49128000
    29  C          0.30239000       0.32324000       0.50923000
    30  C          0.69761000       0.67676000       0.49077000
    31  H          0.45080000       0.33730000       0.55020000
    32  H          0.54920000       0.66270000       0.44980000
    33  C          0.23821000       0.21924000       0.45273000
    34  C          0.76179000       0.78076000       0.54727000
    35  H          0.34100000       0.16260000       0.45520000
    36  H          0.65900000       0.83740000       0.54480000
    37  C          0.01401000       0.19524000       0.38913000
    38  C         -0.01401000       0.80476000       0.61087000
    39  H         -0.03230000       0.12250000       0.35110000
    40  H          0.03230000       0.87750000       0.64890000
    41  C          0.86828000       0.27664000       0.38323000
    42  C          0.13172000       0.72336000       0.61677000
    43  H          0.72430000       0.25910000       0.34010000
    44  H          0.27570000       0.74090000       0.65990000
    45  C          0.78157000       0.47644000       0.43283000
    46  C          0.21843000       0.52356000       0.56717000
    47  C          0.55658000       0.44734000       0.36273000
    48  C          0.44342000       0.55266000       0.63727000
    49  H          0.43120000       0.39010000       0.36070000
    50  H          0.56880000       0.60990000       0.63930000
    51  C          0.51638000       0.49504000       0.30263000
    52  C          0.48362000       0.50496000       0.69737000
    53  H          0.63970000       0.55270000       0.30410000
    54  H          0.36030000       0.44730000       0.69590000
    55  C          0.28947000       0.46293000       0.23323000
    56  C          0.71053000       0.53707000       0.76677000
    57  C          0.12271000       0.36554000       0.21313000
    58  C          0.87729000       0.63446000       0.78687000
    59  H          0.14930000       0.31640000       0.24370000
    60  H          0.85070000       0.68360000       0.75630000
    61  C          0.91589000       0.34225000       0.14683000
    62  C          0.08411000       0.65775000       0.85317000
    63  H          0.80700000       0.27600000       0.13410000
    64  H          0.19300000       0.72400000       0.86590000
    65  C          0.02191000       0.49914000       0.11903000
    66  C         -0.02191000       0.50086000       0.88097000
    67  H         -0.00850000       0.54570000       0.08640000
    68  H          0.00850000       0.45430000       0.91360000
    69  C          0.23301000       0.53064000       0.18443000
    70  C          0.76699000       0.46936000       0.81557000
    71  H          0.33750000       0.59750000       0.19560000
    72  H          0.66250000       0.40250000       0.80440000
    73  N          0.86123000       0.40693000       0.10023000
    74  N          0.13877000       0.59307000       0.89977000
