data_YAHYUF
_symmetry_space_group_name_H-M    'P1'
_symmetry_Int_Tables_number       1
loop_
_symmetry_equiv_pos_site_id
_symmetry_equiv_pos_as_xyz
1 x,y,z
_cell_length_a                   5.37538
_cell_length_b                   10.967516
_cell_length_c                   11.566016
_cell_angle_alpha                74.5202
_cell_angle_beta                 78.0232
_cell_angle_gamma                83.2082
loop_
_atom_site_label
_atom_site_type_symbol
_atom_site_fract_x
_atom_site_fract_y
_atom_site_fract_z
     1  C          0.40047000       0.18693000       0.52073000
     2  C          0.59953000       0.81307000       0.47927000
     3  H          0.54490000       0.13300000       0.50820000
     4  H          0.45510000       0.86700000       0.49180000
     5  C          0.36326000       0.24073000       0.61993000
     6  C          0.63674000       0.75927000       0.38007000
     7  H          0.48130000       0.22450000       0.67150000
     8  H          0.51870000       0.77550000       0.32850000
     9  C          0.14766000       0.31813000       0.63922000
    10  C          0.85234000       0.68187000       0.36078000
    11  C          0.97794000       0.34323000       0.55883000
    12  C          0.02206000       0.65677000       0.44117000
    13  H          0.83220000       0.39690000       0.56900000
    14  H          0.16780000       0.60310000       0.43100000
    15  C          0.03427000       0.28533000       0.46333000
    16  C          0.96573000       0.71467000       0.53667000
    17  H          0.92060000       0.30100000       0.40950000
    18  H          0.07940000       0.69900000       0.59050000
    19  C          0.26506000       0.46463000       0.74133000
    20  C          0.73494000       0.53537000       0.25867000
    21  C          0.21775000       0.51823000       0.84962000
    22  C          0.78225000       0.48177000       0.15038000
    23  C          0.01955000       0.47503000       0.94832000
    24  C          0.98045000       0.52497000       0.05168000
    25  C          0.85475000       0.38463000       0.94493000
    26  C          0.14525000       0.61537000       0.05507000
    27  C          0.88675000       0.33483000       0.83482000
    28  C          0.11325000       0.66517000       0.16518000
    29  C          0.37006000       0.60843000       0.85343000
    30  C          0.62994000       0.39157000       0.14657000
    31  H          0.49830000       0.63740000       0.78730000
    32  H          0.50170000       0.36260000       0.21270000
    33  C          0.33286000       0.65693000       0.95653000
    34  C          0.66714000       0.34307000       0.04347000
    35  H          0.43690000       0.71810000       0.95820000
    36  H          0.56310000       0.28190000       0.04180000
    37  N          0.24016000       0.20883000       0.44332000
    38  N          0.75984000       0.79117000       0.55668000
    39  N          0.09715000       0.37372000       0.74302000
    40  N          0.90285000       0.62628000       0.25698000
    41  O          0.43214000       0.49762000       0.65451190
    42  O          0.56786000       0.50238000       0.34548810
    43  O          0.74056000       0.26422000       0.82469190
    44  O          0.25944000       0.73578000       0.17530810
    45  C          0.21567000       0.06603000       0.98217000
    46  C          0.78433000       0.93397000       0.01783000
    47  H          0.36000000       0.11030000       0.97000000
    48  H          0.64000000       0.88970000       0.03000000
    49  C          0.05136000       0.04443000       0.09303000
    50  C          0.94864000       0.95557000       0.90697000
    51  C          0.83713000       0.97937000       0.11163000
    52  C          0.16287000       0.02063000       0.88837000
    53  H          0.72730000       0.96560000       0.18670000
    54  H          0.27270000       0.03440000       0.81330000
    55  I          0.13559500       0.10283200       0.23890200
    56  I          0.86440500       0.89716800       0.76109800
