data_YAHYEP
_symmetry_space_group_name_H-M    'P1'
_symmetry_Int_Tables_number       1
loop_
_symmetry_equiv_pos_site_id
_symmetry_equiv_pos_as_xyz
1 x,y,z
_cell_length_a                   5.33308
_cell_length_b                   11.766018
_cell_length_c                   13.3442
_cell_angle_alpha                113.9772
_cell_angle_beta                 94.1973
_cell_angle_gamma                103.0532
loop_
_atom_site_label
_atom_site_type_symbol
_atom_site_fract_x
_atom_site_fract_y
_atom_site_fract_z
     1  C          0.09127000       0.67493000       0.18613000
     2  C          0.90873000       0.32507000       0.81387000
     3  H         -0.02430000       0.71430000       0.17030000
     4  H          0.02430000       0.28570000       0.82970000
     5  C          0.01767000       0.54023000       0.13523000
     6  C         -0.01767000       0.45977000       0.86477000
     7  H          0.86070000       0.49530000       0.08930000
     8  H          0.13930000       0.50470000       0.91070000
     9  C          0.18966000       0.47953000       0.15743000
    10  C          0.81034000       0.52047000       0.84257000
    11  C          0.42697000       0.55213000       0.22723000
    12  C          0.57303000       0.44787000       0.77277000
    13  H          0.53670000       0.51640000       0.24630000
    14  H          0.46330000       0.48360000       0.75370000
    15  C          0.48257000       0.68663000       0.27383000
    16  C          0.51743000       0.31337000       0.72617000
    17  H          0.64780000       0.73940000       0.32330000
    18  H          0.35220000       0.26060000       0.67670000
    19  C          0.26926000       0.27993000       0.02793000
    20  C          0.73074000       0.72007000       0.97207000
    21  C          0.20936000       0.13623000       0.98077000
    22  C          0.79064000       0.86377000       0.01923000
    23  C          0.02396000       0.06803000       0.02083000
    24  C         -0.02396000       0.93197000       0.97917000
    25  C          0.88096000       0.13083000       0.10003000
    26  C          0.11904000       0.86917000       0.89997000
    27  C          0.91976000       0.27263000       0.14163000
    28  C          0.08024000       0.72737000       0.85837000
    29  C          0.70437000       0.06173000       0.13903000
    30  C          0.29563000       0.93827000       0.86097000
    31  H          0.61160000       0.10530000       0.19930000
    32  H          0.38840000       0.89470000       0.80070000
    33  C          0.65997000       0.92737000       0.09903000
    34  C          0.34003000       0.07263000       0.90097000
    35  H          0.53270000       0.87970000       0.12330000
    36  H          0.46730000       0.12030000       0.87670000
    37  N          0.31786000       0.74723000       0.25393000
    38  N          0.68214000       0.25277000       0.74607000
    39  N          0.12635000       0.33902000       0.10872000
    40  N          0.87365000       0.66098000       0.89128000
    41  O          0.78545000       0.33002000       0.20162000
    42  O          0.21455000       0.66998000       0.79838000
    43  O          0.42885000       0.34422000      -0.00222000
    44  O          0.57115000       0.65578000       0.00222000
    45  C          0.03567000       0.43783000       0.48283000
    46  C         -0.03567000       0.56217000       0.51717000
    47  C          0.21958000       0.40944000       0.41463000
    48  C          0.78042000       0.59056000       0.58537000
    49  H          0.31380000       0.47440000       0.39330000
    50  H          0.68620000       0.52560000       0.60670000
    51  C          0.28319000       0.29304000       0.38003000
    52  C          0.71681000       0.70696000       0.61997000
    53  H          0.40080000       0.27640000       0.33630000
    54  H          0.59920000       0.72360000       0.66370000
    55  C          0.15877000       0.20113000       0.41223000
    56  C          0.84123000       0.79887000       0.58777000
    57  C         -0.02149000       0.22754000       0.48204000
    58  C          0.02149000       0.77246000       0.51796000
    59  H          0.90110000       0.16840000       0.50040000
    60  H          0.09890000       0.83160000       0.49960000
    61  C          0.92011000       0.34374000       0.51594000
    62  C          0.07989000       0.65626000       0.48406000
    63  H          0.80120000       0.35840000       0.56130000
    64  H          0.19880000       0.64160000       0.43870000
    65  I          0.24392500       0.02162200       0.35715200
    66  I          0.75607500       0.97837800       0.64284800
