data_YAJGIC
_symmetry_space_group_name_H-M    'P1'
_symmetry_Int_Tables_number       1
loop_
_symmetry_equiv_pos_site_id
_symmetry_equiv_pos_as_xyz
1 x,y,z
_cell_length_a                   7.59753
_cell_length_b                   11.99204
_cell_length_c                   12.64935
_cell_angle_alpha                63.2574
_cell_angle_beta                 82.4353
_cell_angle_gamma                83.4193
loop_
_atom_site_label
_atom_site_type_symbol
_atom_site_fract_x
_atom_site_fract_y
_atom_site_fract_z
     1  C          0.22022000       0.97180180       0.09665170
     2  C          0.77978000       0.02819820       0.90334830
     3  C          0.18983000       0.88512000       0.05832000
     4  C          0.81017000       0.11488000       0.94168000
     5  H          0.14880000       0.80720000       0.11090000
     6  H          0.85120000       0.19280000       0.88910000
     7  C          0.22333000       0.92012000       0.93748000
     8  C          0.77667000       0.07988000       0.06252000
     9  H          0.20330000       0.86490000       0.90770000
    10  H          0.79670000       0.13510000       0.09230000
    11  C          0.28603000       0.03573000       0.86038000
    12  C          0.71397000       0.96427000       0.13962000
    13  H          0.30880000       0.05640000       0.77990000
    14  H          0.69120000       0.94360000       0.22010000
    15  C          0.31563000       0.12122000       0.90059820
    16  C          0.68437000       0.87878000       0.09940180
    17  H          0.35740000       0.19890000       0.84810000
    18  H          0.64260000       0.80110000       0.15190000
    19  C          0.28132000       0.08815180       0.02147170
    20  C          0.71868000       0.91184820       0.97852830
    21  C          0.30612000       0.16348170       0.08435160
    22  C          0.69388000       0.83651830       0.91564840
    23  N          0.26062000       0.09493150       0.20234150
    24  N          0.73938000       0.90506850       0.79765850
    25  H          0.27740000       0.11330000       0.25320000
    26  H          0.72260000       0.88670000       0.74680000
    27  O          0.01654190       0.94233140       0.29486120
    28  O          0.98345810       0.05766860       0.70513880
    29  O          0.32552000       0.86021130       0.31249130
    30  O          0.67448000       0.13978870       0.68750870
    31  S          0.19664600       0.95177400       0.24410400
    32  S          0.80335400       0.04822600       0.75589600
    33  S          0.37995700       0.30311500       0.02429500
    34  S          0.62004300       0.69688500       0.97570500
    35  C          0.68062000       0.84111160       0.54619150
    36  C          0.31938000       0.15888840       0.45380850
    37  C          0.77692000       0.64208160       0.53928170
    38  C          0.22308000       0.35791840       0.46071830
    39  C          0.83062000       0.65923190       0.42454180
    40  C          0.16938000       0.34076810       0.57545820
    41  H          0.87960000       0.73320000       0.36900000
    42  H          0.12040000       0.26680000       0.63100000
    43  C          0.81043000       0.56472000       0.39322000
    44  C          0.18957000       0.43528000       0.60678000
    45  H          0.84380000       0.57580000       0.31580000
    46  H          0.15620000       0.42420000       0.68420000
    47  C          0.74043000       0.45392000       0.47722000
    48  C          0.25957000       0.54608000       0.52278000
    49  H          0.72920000       0.38990000       0.45660000
    50  H          0.27080000       0.61010000       0.54340000
    51  C          0.68733000       0.43839190       0.59112000
    52  C          0.31267000       0.56160810       0.40888000
    53  H          0.64040000       0.36370000       0.64680000
    54  H          0.35960000       0.63630000       0.35320000
    55  C          0.70272000       0.53249180       0.62417190
    56  C          0.29728000       0.46750820       0.37582810
    57  C          0.65023000       0.51954190       0.74732000
    58  C          0.34977000       0.48045810       0.25268000
    59  H          0.57980000       0.44730000       0.79120000
    60  H          0.42020000       0.55270000       0.20880000
    61  H          0.57670000       0.59300000       0.74290000
    62  H          0.42330000       0.40700000       0.25710000
    63  C          0.81133000       0.50464190       0.81413180
    64  C          0.18867000       0.49535810       0.18586820
    65  H          0.76780000       0.49330000       0.89370000
    66  H          0.23220000       0.50670000       0.10630000
    67  H          0.87870000       0.42800000       0.82190000
    68  H          0.12130000       0.57200000       0.17810000
    69  C          0.93893000       0.60845180       0.76267170
    70  C          0.06107000       0.39154820       0.23732830
    71  C          0.08003000       0.59532000       0.82922180
    72  C          0.91997000       0.40468000       0.17077820
    73  H          0.09170000       0.52330000       0.90010000
    74  H          0.90830000       0.47670000       0.09990000
    75  C          0.20243000       0.68472000       0.79401190
    76  C          0.79757000       0.31528000       0.20598810
    77  H          0.29290000       0.67340000       0.84150000
    78  H          0.70710000       0.32660000       0.15850000
    79  C          0.18963000       0.79162000       0.68737190
    80  C          0.81037000       0.20838000       0.31262810
    81  H          0.27010000       0.85320000       0.66330000
    82  H          0.72990000       0.14680000       0.33670000
    83  C          0.05602000       0.80571180       0.61734170
    84  C          0.94398000       0.19428820       0.38265830
    85  H          0.04980000       0.87580000       0.54430000
    86  H          0.95020000       0.12420000       0.45570000
    87  C          0.93042000       0.71657160       0.65439160
    88  C          0.06958000       0.28342840       0.34560840
    89  N          0.56312000       0.85986160       0.46935150
    90  N          0.43688000       0.14013840       0.53064850
    91  H          0.48930000       0.91920000       0.45620000
    92  H          0.51070000       0.08080000       0.54380000
    93  H          0.55130000       0.80520000       0.44351900
    94  H          0.44870000       0.19480000       0.55648100
    95  N          0.79582000       0.73754130       0.57617130
    96  N          0.20418000       0.26245870       0.42382870
    97  O          0.68509170       0.91631110       0.58919110
    98  O          0.31490830       0.08368890       0.41080890
