data_YAJGOI
_symmetry_space_group_name_H-M    'P1'
_symmetry_Int_Tables_number       1
loop_
_symmetry_equiv_pos_site_id
_symmetry_equiv_pos_as_xyz
1 x,y,z
_cell_length_a                   8.01752
_cell_length_b                   24.08774
_cell_length_c                   7.407701
_cell_angle_alpha                90.0
_cell_angle_beta                 93.0962
_cell_angle_gamma                90.0
loop_
_atom_site_label
_atom_site_type_symbol
_atom_site_fract_x
_atom_site_fract_y
_atom_site_fract_z
     1  C          0.46262000       0.29736800       0.52672000
     2  C          0.53738000       0.79736800       0.97328000
     3  C          0.53738000       0.70263200       0.47328000
     4  C          0.46262000       0.20263200       0.02672000
     5  C          0.60952000       0.27519800       0.46813000
     6  C          0.39048000       0.77519800       0.03187000
     7  C          0.39048000       0.72480200       0.53187000
     8  C          0.60952000       0.22480200       0.96813000
     9  H          0.69550000       0.29780000       0.43160000
    10  H          0.30450000       0.79780000       0.06840000
    11  H          0.30450000       0.70220000       0.56840000
    12  H          0.69550000       0.20220000       0.93160000
    13  C          0.62262000       0.21772900       0.46633000
    14  C          0.37738000       0.71772900       0.03367000
    15  C          0.37738000       0.78227100       0.53367000
    16  C          0.62262000       0.28227100       0.96633000
    17  H          0.71960000       0.20130000       0.42840000
    18  H          0.28040000       0.70130000       0.07160000
    19  H          0.28040000       0.79870000       0.57160000
    20  H          0.71960000       0.29870000       0.92840000
    21  C          0.49263000       0.18437800       0.52053000
    22  C          0.50737000       0.68437800       0.97947000
    23  C          0.50737000       0.81562200       0.47947000
    24  C          0.49263000       0.31562200       0.02053000
    25  H          0.50450000       0.14600000       0.51870000
    26  H          0.49550000       0.64600000      -0.01870000
    27  H          0.49550000       0.85400000       0.48130000
    28  H          0.50450000       0.35400000       0.01870000
    29  C          0.34612000       0.20731800       0.57682000
    30  C          0.65388000       0.70731800       0.92318000
    31  C          0.65388000       0.79268200       0.42318000
    32  C          0.34612000       0.29268200       0.07682000
    33  H          0.25910000       0.18480000       0.61150000
    34  H          0.74090000       0.68480000       0.88850000
    35  H          0.74090000       0.81520000       0.38850000
    36  H          0.25910000       0.31520000       0.11150000
    37  C          0.33202000       0.26472800       0.58042000
    38  C          0.66798000       0.76472800       0.91958000
    39  C          0.66798000       0.73527200       0.41958000
    40  C          0.33202000       0.23527200       0.08042000
    41  C          0.18832000       0.29762800       0.63802000
    42  C          0.81168000       0.79762800       0.86198000
    43  C          0.81168000       0.70237200       0.36198000
    44  C          0.18832000       0.20237200       0.13802000
    45  N          0.22642000       0.35263700       0.62842000
    46  N          0.77358000       0.85263700       0.87158000
    47  N          0.77358000       0.64736300       0.37158000
    48  N          0.22642000       0.14736300       0.12842000
    49  O          0.38004190       0.39251600       0.36694190
    50  O          0.61995810       0.89251600       0.13305810
    51  O          0.61995810       0.60748400       0.63305810
    52  O          0.38004190       0.10748400       0.86694190
    53  O          0.51402190       0.39760600       0.67032000
    54  O          0.48597810       0.89760600       0.82968000
    55  O          0.48597810       0.60239400       0.32968000
    56  O          0.51402190       0.10239400       0.17032000
    57  S          0.40906600       0.36779200       0.54214600
    58  S          0.59093400       0.86779200       0.95785400
    59  S          0.59093400       0.63220800       0.45785400
    60  S          0.40906600       0.13220800       0.04214600
    61  S          0.01216600       0.27298200       0.70551700
    62  S         -0.01216600       0.77298200       0.79448300
    63  S         -0.01216600       0.72701800       0.29448300
    64  S          0.01216600       0.22701800       0.20551700
    65  H          0.16130000       0.37931200       0.65630000
    66  H          0.83870000       0.87931200       0.84370000
    67  H          0.83870000       0.62068800       0.34370000
    68  H          0.16130000       0.12068800       0.15630000
    69  C          0.13932000       0.55101800       0.07193000
    70  C          0.86068000       0.05101800       0.42807000
    71  C          0.86068000       0.44898200       0.92807000
    72  C          0.13932000       0.94898200       0.57193000
    73  C          0.06373000       0.59774800      -0.00793000
    74  C          0.93627000       0.09774800       0.50793000
    75  C          0.93627000       0.40225200       0.00793000
    76  C          0.06373000       0.90225200       0.49207000
    77  H         -0.01150000       0.61810000       0.05670000
    78  H          0.01150000       0.11810000       0.44330000
    79  H          0.01150000       0.38190000       0.94330000
    80  H         -0.01150000       0.88190000       0.55670000
    81  C          0.09773000       0.61454900       0.81877000
    82  C          0.90227000       0.11454900       0.68123000
    83  C          0.90227000       0.38545100       0.18123000
    84  C          0.09773000       0.88545100       0.31877000
    85  H          0.04520000       0.64570000       0.76810000
    86  H          0.95480000       0.14570000       0.73190000
    87  H          0.95480000       0.35430000       0.23190000
    88  H          0.04520000       0.85430000       0.26810000
    89  C          0.21003000       0.58478900       0.72137000
    90  C          0.78997000       0.08478900       0.77863000
    91  C          0.78997000       0.41521100       0.27863000
    92  C          0.21003000       0.91521100       0.22137000
    93  H          0.23230000       0.59580000       0.60490000
    94  H          0.76770000       0.09580000       0.89510000
    95  H          0.76770000       0.40420000       0.39510000
    96  H          0.23230000       0.90420000       0.10490000
    97  C          0.28893000       0.53871900       0.79677000
    98  C          0.71107000       0.03871900       0.70323000
    99  C          0.71107000       0.46128100       0.20323000
   100  C          0.28893000       0.96128100       0.29677000
   101  H          0.36560000       0.51880000       0.73290000
   102  H          0.63440000       0.01880000       0.76710000
   103  H          0.63440000       0.48120000       0.26710000
   104  H          0.36560000       0.98120000       0.23290000
   105  C          0.25172000       0.52280800       0.96877000
   106  C          0.74828000       0.02280800       0.53123000
   107  C          0.74828000       0.47719200       0.03123000
   108  C          0.25172000       0.97719200       0.46877000
   109  C          0.08982000       0.53410800       0.25623000
   110  C          0.91018000       0.03410800       0.24377000
   111  C          0.91018000       0.46589200       0.74377000
   112  C          0.08982000       0.96589200       0.75623000
   113  N          0.16562000       0.49156700       0.33872000
   114  N          0.83438000       0.99156700       0.16128000
   115  N          0.83438000       0.50843300       0.66128000
   116  N          0.16562000       0.00843300       0.83872000
   117  O          0.97780820       0.55958600       0.33121190
   118  O          0.02219180       0.05958600       0.16878810
   119  O          0.02219180       0.44041400       0.66878810
   120  O          0.97780820       0.94041400       0.83121190
   121  F          0.32871160       0.47626600       0.03537170
   122  F          0.67128840       0.97626600       0.46462830
   123  F          0.67128840       0.52373400       0.96462830
   124  F          0.32871160       0.02373400       0.53537170
   125  H          0.12330000       0.47971000       0.44030000
   126  H          0.87670000       0.97971000       0.05970000
   127  H          0.87670000       0.52029000       0.55970000
   128  H          0.12330000       0.02029000       0.94030000
   129  H          0.23930000       0.47421000       0.29030000
   130  H          0.76070000       0.97421000       0.20970000
   131  H          0.76070000       0.52579000       0.70970000
   132  H          0.23930000       0.02579000       0.79030000
