data_YAJVEN
_symmetry_space_group_name_H-M    'P1'
_symmetry_Int_Tables_number       1
loop_
_symmetry_equiv_pos_site_id
_symmetry_equiv_pos_as_xyz
1 x,y,z
_cell_length_a                   15.8428
_cell_length_b                   5.69805
_cell_length_c                   16.751715
_cell_angle_alpha                90.0
_cell_angle_beta                 94.722
_cell_angle_gamma                90.0
loop_
_atom_site_label
_atom_site_type_symbol
_atom_site_fract_x
_atom_site_fract_y
_atom_site_fract_z
     1  I          0.37436315       0.56420400       0.32037013
     2  I          0.62563685       0.06420400       0.17962987
     3  I          0.62563685       0.43579600       0.67962987
     4  I          0.37436315       0.93579600       0.82037013
     5  F          0.50895130       0.17054000       0.38410110
     6  F          0.49104870       0.67054000       0.11589890
     7  F          0.49104870       0.82946000       0.61589890
     8  F          0.50895130       0.32946000       0.88410110
     9  F          0.39778130       0.87974000       0.47794120
    10  F          0.60221870       0.37974000       0.02205880
    11  F          0.60221870       0.12026000       0.52205880
    12  F          0.39778130       0.62026000       0.97794120
    13  C          0.45062000       0.52636000       0.42672000
    14  C          0.54938000       0.02636000       0.07328000
    15  C          0.54938000       0.47364000       0.57328000
    16  C          0.45062000       0.97364000       0.92672000
    17  C          0.50312000       0.33536000       0.44092000
    18  C          0.49688000       0.83536000       0.05908000
    19  C          0.49688000       0.66464000       0.55908000
    20  C          0.50312000       0.16464000       0.94092000
    21  C          0.44872000       0.69106000       0.48750190
    22  C          0.55128000       0.19106000       0.01249810
    23  C          0.55128000       0.30894000       0.51249810
    24  C          0.44872000       0.80894000       0.98750190
    25  O          0.04853160       0.30774000       0.03403130
    26  O          0.95146840       0.80774000       0.46596870
    27  O          0.95146840       0.69226000       0.96596870
    28  O          0.04853160       0.19226000       0.53403130
    29  H          0.07250000       0.43010000       0.02350000
    30  H          0.92750000       0.93010000       0.47650000
    31  H          0.92750000       0.56990000       0.97650000
    32  H          0.07250000       0.06990000       0.52350000
    33  N          0.18015190       0.55255000       0.13443170
    34  N          0.81984810       0.05255000       0.36556830
    35  N          0.81984810       0.44745000       0.86556830
    36  N          0.18015190       0.94745000       0.63443170
    37  N          0.24125180       0.65775000       0.18074160
    38  N          0.75874820       0.15775000       0.31925840
    39  N          0.75874820       0.34225000       0.81925840
    40  N          0.24125180       0.84225000       0.68074160
    41  C          0.15802000       0.26606000       0.23772190
    42  C          0.84198000       0.76606000       0.26227810
    43  C          0.84198000       0.73394000       0.76227810
    44  C          0.15802000       0.23394000       0.73772190
    45  H          0.19800000       0.34580000       0.27130000
    46  H          0.80200000       0.84580000       0.22870000
    47  H          0.80200000       0.65420000       0.72870000
    48  H          0.19800000       0.15420000       0.77130000
    49  C          0.06072000       0.95024000       0.21322000
    50  C          0.93928000       0.45024000       0.28678000
    51  C          0.93928000       0.04976000       0.78678000
    52  C          0.06072000       0.54976000       0.71322000
    53  H          0.03530000       0.81420000       0.23030000
    54  H          0.96470000       0.31420000       0.26970000
    55  H          0.96470000       0.18580000       0.76970000
    56  H          0.03530000       0.68580000       0.73030000
    57  C          0.12062000       0.06426000       0.26502000
    58  C          0.87938000       0.56426000       0.23498000
    59  C          0.87938000       0.93574000       0.73498000
    60  C          0.12062000       0.43574000       0.76502000
    61  C          0.07522000       0.23836000       0.10973190
    62  C          0.92478000       0.73836000       0.39026810
    63  C          0.92478000       0.76164000       0.89026810
    64  C          0.07522000       0.26164000       0.60973190
    65  C          0.03822000       0.03406000       0.13742000
    66  C          0.96178000       0.53406000       0.36258000
    67  C          0.96178000       0.96594000       0.86258000
    68  C          0.03822000       0.46594000       0.63742000
    69  H         -0.00200000       0.95390000       0.10420000
    70  H          0.00200000       0.45390000       0.39580000
    71  H          0.00200000       0.04610000       0.89580000
    72  H         -0.00200000       0.54610000       0.60420000
    73  C          0.13652000       0.35036000       0.16072000
    74  C          0.86348000       0.85036000       0.33928000
    75  C          0.86348000       0.64964000       0.83928000
    76  C          0.13652000       0.14964000       0.66072000
    77  N          0.16036180       0.64775000       0.06215160
    78  N          0.83963820       0.14775000       0.43784840
    79  N          0.83963820       0.35225000       0.93784840
    80  N          0.16036180       0.85225000       0.56215160
    81  C          0.14563000       0.96933000       0.34742000
    82  C          0.85437000       0.46933000       0.15258000
    83  C          0.85437000       0.03067000       0.65258000
    84  C          0.14563000       0.53067000       0.84742000
    85  H          0.19940000       0.89150000       0.34740000
    86  H          0.80060000       0.39150000       0.15260000
    87  H          0.80060000       0.10850000       0.65260000
    88  H          0.19940000       0.60850000       0.84740000
    89  H          0.10360000       0.85980000       0.36210000
    90  H          0.89640000       0.35980000       0.13790000
    91  H          0.89640000       0.14020000       0.63790000
    92  H          0.10360000       0.64020000       0.86210000
    93  H          0.14990000       0.09640000       0.38510000
    94  H          0.85010000       0.59640000       0.11490000
    95  H          0.85010000       0.90360000       0.61490000
    96  H          0.14990000       0.40360000       0.88510000
    97  C          0.26362000       0.83946000       0.13480190
    98  C          0.73638000       0.33946000       0.36519810
    99  C          0.73638000       0.16054000       0.86519810
   100  C          0.26362000       0.66054000       0.63480190
   101  C          0.33152000       0.18356000       0.09362000
   102  C          0.66848000       0.68356000       0.40638000
   103  C          0.66848000       0.81644000       0.90638000
   104  C          0.33152000       0.31644000       0.59362000
   105  H          0.37060000       0.30420000       0.10290000
   106  H          0.62940000       0.80420000       0.39710000
   107  H          0.62940000       0.69580000       0.89710000
   108  H          0.37060000       0.19580000       0.60290000
   109  C          0.32392000       0.01786000       0.15192000
   110  C          0.67608000       0.51786000       0.34808000
   111  C          0.67608000      -0.01786000       0.84808000
   112  C          0.32392000       0.48214000       0.65192000
   113  H          0.35700000       0.02290000       0.20040000
   114  H          0.64300000       0.52290000       0.29960000
   115  H          0.64300000      -0.02290000       0.79960000
   116  H          0.35700000       0.47710000       0.70040000
   117  C          0.21392000       0.83136000       0.06135190
   118  C          0.78608000       0.33136000       0.43864810
   119  C          0.78608000       0.16864000       0.93864810
   120  C          0.21392000       0.66864000       0.56135190
   121  C          0.28122000       0.17576000       0.01932000
   122  C          0.71878000       0.67576000       0.48068000
   123  C          0.71878000       0.82424000       0.98068000
   124  C          0.28122000       0.32424000       0.51932000
   125  H          0.28840000       0.29220000       0.98150000
   126  H          0.71160000       0.79220000       0.51850000
   127  H          0.71160000       0.70780000       0.01850000
   128  H          0.28840000       0.20780000       0.48150000
   129  C          0.22282000       0.00386000       0.00132000
   130  C          0.77718000       0.50386000       0.49868000
   131  C          0.77718000      -0.00386000      -0.00132000
   132  C          0.22282000       0.49614000       0.50132000
   133  H          0.19050000      -0.00040000       0.95240000
   134  H          0.80950000       0.49960000       0.54760000
   135  H          0.80950000       0.00040000       0.04760000
   136  H          0.19050000       0.50040000       0.45240000
