data_YAKDUM
_symmetry_space_group_name_H-M    'P1'
_symmetry_Int_Tables_number       1
loop_
_symmetry_equiv_pos_site_id
_symmetry_equiv_pos_as_xyz
1 x,y,z
_cell_length_a                   28.730018
_cell_length_b                   7.32874
_cell_length_c                   13.93888
_cell_angle_alpha                90.0
_cell_angle_beta                 113.4427
_cell_angle_gamma                90.0
loop_
_atom_site_label
_atom_site_type_symbol
_atom_site_fract_x
_atom_site_fract_y
_atom_site_fract_z
     1  S          0.43630200       0.25610900       0.11471500
     2  S          0.56369800       0.25610900       0.38528500
     3  S          0.93630200       0.75610900       0.11471500
     4  S          0.06369800       0.75610900       0.38528500
     5  S          0.56369800       0.74389100       0.88528500
     6  S          0.43630200       0.74389100       0.61471500
     7  S          0.06369800       0.24389100       0.88528500
     8  S          0.93630200       0.24389100       0.61471500
     9  O          0.34656500       0.39255180       0.09206100
    10  O          0.65343500       0.39255180       0.40793900
    11  O          0.84656500       0.89255180       0.09206100
    12  O          0.15343500       0.89255180       0.40793900
    13  O          0.65343500       0.60744820       0.90793900
    14  O          0.34656500       0.60744820       0.59206100
    15  O          0.15343500       0.10744820       0.90793900
    16  O          0.84656500       0.10744820       0.59206100
    17  C          0.37793700       0.32543000       0.04726150
    18  C          0.62206300       0.32543000       0.45273850
    19  C          0.87793700       0.82543000       0.04726150
    20  C          0.12206300       0.82543000       0.45273850
    21  C          0.62206300       0.67457000       0.95273850
    22  C          0.37793700       0.67457000       0.54726150
    23  C          0.12206300       0.17457000       0.95273850
    24  C          0.87793700       0.17457000       0.54726150
    25  N          0.35036600       0.32992000       0.94523870
    26  N          0.64963400       0.32992000       0.55476130
    27  N          0.85036600       0.82992000       0.94523870
    28  N          0.14963400       0.82992000       0.55476130
    29  N          0.64963400       0.67008000       0.05476130
    30  N          0.35036600       0.67008000       0.44523870
    31  N          0.14963400       0.17008000       0.05476130
    32  N          0.85036600       0.17008000       0.44523870
    33  N          0.30212600       0.39632000       0.92137880
    34  N          0.69787400       0.39632000       0.57862120
    35  N          0.80212600       0.89632000       0.92137880
    36  N          0.19787400       0.89632000       0.57862120
    37  N          0.69787400       0.60368000       0.07862120
    38  N          0.30212600       0.60368000       0.42137880
    39  N          0.19787400       0.10368000       0.07862120
    40  N          0.80212600       0.10368000       0.42137880
    41  O          0.14532800       0.73393000       0.18923150
    42  O          0.85467200       0.73393000       0.31076850
    43  O          0.64532800       0.23393000       0.18923150
    44  O          0.35467200       0.23393000       0.31076850
    45  O          0.85467200       0.26607000       0.81076850
    46  O          0.14532800       0.26607000       0.68923150
    47  O          0.35467200       0.76607000       0.81076850
    48  O          0.64532800       0.76607000       0.68923150
    49  C          0.25968600       0.50002000       0.03397130
    50  C          0.74031400       0.50002000       0.46602870
    51  C          0.75968600       0.00002000       0.03397130
    52  C          0.24031400       0.00002000       0.46602870
    53  C          0.74031400       0.49998000       0.96602870
    54  C          0.25968600       0.49998000       0.53397130
    55  C          0.24031400      -0.00002000       0.96602870
    56  C          0.75968600      -0.00002000       0.53397130
    57  C          0.30146600       0.43082000       0.01098130
    58  C          0.69853400       0.43082000       0.48901870
    59  C          0.80146600       0.93082000       0.01098130
    60  C          0.19853400       0.93082000       0.48901870
    61  C          0.69853400       0.56918000       0.98901870
    62  C          0.30146600       0.56918000       0.51098130
    63  C          0.19853400       0.06918000       0.98901870
    64  C          0.80146600       0.06918000       0.51098130
    65  C          0.18090700       0.63272000       0.07623140
    66  C          0.81909300       0.63272000       0.42376860
    67  C          0.68090700       0.13272000       0.07623140
    68  C          0.31909300       0.13272000       0.42376860
    69  C          0.81909300       0.36728000       0.92376860
    70  C          0.18090700       0.36728000       0.57623140
    71  C          0.31909300       0.86728000       0.92376860
    72  C          0.68090700       0.86728000       0.57623140
    73  N          0.13861700       0.70662000       0.09874160
    74  N          0.86138300       0.70662000       0.40125840
    75  N          0.63861700       0.20662000       0.09874160
    76  N          0.36138300       0.20662000       0.40125840
    77  N          0.86138300       0.29338000       0.90125840
    78  N          0.13861700       0.29338000       0.59874160
    79  N          0.36138300       0.79338000       0.90125840
    80  N          0.63861700       0.79338000       0.59874160
    81  C          0.26653700       0.53973000       0.13641140
    82  C          0.73346300       0.53973000       0.36358860
    83  C          0.76653700       0.03973000       0.13641140
    84  C          0.23346300       0.03973000       0.36358860
    85  C          0.73346300       0.46027000       0.86358860
    86  C          0.26653700       0.46027000       0.63641140
    87  C          0.23346300       0.96027000       0.86358860
    88  C          0.76653700       0.96027000       0.63641140
    89  H          0.29800000       0.52070000       0.19070000
    90  H          0.70200000       0.52070000       0.30930000
    91  H          0.79800000       0.02070000       0.19070000
    92  H          0.20200000       0.02070000       0.30930000
    93  H          0.70200000       0.47930000       0.80930000
    94  H          0.29800000       0.47930000       0.69070000
    95  H          0.20200000       0.97930000       0.80930000
    96  H          0.79800000       0.97930000       0.69070000
    97  C          0.21245700       0.52803000       0.95292870
    98  C          0.78754300       0.52803000       0.54707130
    99  C          0.71245700       0.02803000       0.95292870
   100  C          0.28754300       0.02803000       0.54707130
   101  C          0.78754300       0.47197000       0.04707130
   102  C          0.21245700       0.47197000       0.45292870
   103  C          0.28754300       0.97197000       0.04707130
   104  C          0.71245700       0.97197000       0.45292870
   105  H          0.20770000       0.50160000       0.88440000
   106  H          0.79230000       0.50160000       0.61560000
   107  H          0.70770000       0.00160000       0.88440000
   108  H          0.29230000       0.00160000       0.61560000
   109  H          0.79230000       0.49840000       0.11560000
   110  H          0.20770000       0.49840000       0.38440000
   111  H          0.29230000      -0.00160000       0.11560000
   112  H          0.70770000      -0.00160000       0.38440000
   113  C          0.17282700       0.59443000       0.97400860
   114  C          0.82717300       0.59443000       0.52599140
   115  C          0.67282700       0.09443000       0.97400860
   116  C          0.32717300       0.09443000       0.52599140
   117  C          0.82717300       0.40557000       0.02599140
   118  C          0.17282700       0.40557000       0.47400860
   119  C          0.32717300       0.90557000       0.02599140
   120  C          0.67282700       0.90557000       0.47400860
   121  H          0.14110000       0.61320000       0.92030000
   122  H          0.85890000       0.61320000       0.57970000
   123  H          0.64110000       0.11320000       0.92030000
   124  H          0.35890000       0.11320000       0.57970000
   125  H          0.85890000       0.38680000       0.07970000
   126  H          0.14110000       0.38680000       0.42030000
   127  H          0.35890000       0.88680000       0.07970000
   128  H          0.64110000       0.88680000       0.42030000
   129  C          0.22691700       0.60703000       0.15774150
   130  C          0.77308300       0.60703000       0.34225850
   131  C          0.72691700       0.10703000       0.15774150
   132  C          0.27308300       0.10703000       0.34225850
   133  C          0.77308300       0.39297000       0.84225850
   134  C          0.22691700       0.39297000       0.65774150
   135  C          0.27308300       0.89297000       0.84225850
   136  C          0.72691700       0.89297000       0.65774150
   137  H          0.23130000       0.63440000       0.22590000
   138  H          0.76870000       0.63440000       0.27410000
   139  H          0.73130000       0.13440000       0.22590000
   140  H          0.26870000       0.13440000       0.27410000
   141  H          0.76870000       0.36560000       0.77410000
   142  H          0.23130000       0.36560000       0.72590000
   143  H          0.26870000       0.86560000       0.77410000
   144  H          0.73130000       0.86560000       0.72590000
   145  O          0.09865700       0.73863000       0.02518170
   146  O          0.90134300       0.73863000       0.47481830
   147  O          0.59865700       0.23863000       0.02518170
   148  O          0.40134300       0.23863000       0.47481830
   149  O          0.90134300       0.26137000       0.97481830
   150  O          0.09865700       0.26137000       0.52518170
   151  O          0.40134300       0.76137000       0.97481830
   152  O          0.59865700       0.76137000       0.52518170
   153  H          0.35931000       0.29230000       0.89480000
   154  H          0.64069000       0.29230000       0.60520000
   155  H          0.85931000       0.79230000       0.89480000
   156  H          0.14069000       0.79230000       0.60520000
   157  H          0.64069000       0.70770000       0.10520000
   158  H          0.35931000       0.70770000       0.39480000
   159  H          0.14069000       0.20770000       0.10520000
   160  H          0.85931000       0.20770000       0.39480000
   161  O          0.12501600       0.26832000       0.21269130
   162  O          0.87498400       0.26832000       0.28730870
   163  O          0.62501600       0.76832000       0.21269130
   164  O          0.37498400       0.76832000       0.28730870
   165  O          0.87498400       0.73168000       0.78730870
   166  O          0.12501600       0.73168000       0.71269130
   167  O          0.37498400       0.23168000       0.78730870
   168  O          0.62501600       0.23168000       0.71269130
   169  C          0.03624100       0.42664000       0.13802000
   170  C          0.96375900       0.42664000       0.36198000
   171  C          0.53624100       0.92664000       0.13802000
   172  C          0.46375900       0.92664000       0.36198000
   173  C          0.96375900       0.57336000       0.86198000
   174  C          0.03624100       0.57336000       0.63802000
   175  C          0.46375900       0.07336000       0.86198000
   176  C          0.53624100       0.07336000       0.63802000
   177  H          0.05300000       0.54190000       0.15910000
   178  H          0.94700000       0.54190000       0.34090000
   179  H          0.55300000       0.04190000       0.15910000
   180  H          0.44700000       0.04190000       0.34090000
   181  H          0.94700000       0.45810000       0.84090000
   182  H          0.05300000       0.45810000       0.65910000
   183  H          0.44700000       0.95810000       0.84090000
   184  H          0.55300000       0.95810000       0.65910000
   185  H          0.00410000       0.43000000       0.14400000
   186  H         -0.00410000       0.43000000       0.35600000
   187  H          0.50410000       0.93000000       0.14400000
   188  H          0.49590000       0.93000000       0.35600000
   189  H         -0.00410000       0.57000000       0.85600000
   190  H          0.00410000       0.57000000       0.64400000
   191  H          0.49590000       0.07000000       0.85600000
   192  H          0.50410000       0.07000000       0.64400000
   193  H          0.03090000       0.40260000       0.06660000
   194  H          0.96910000       0.40260000       0.43340000
   195  H          0.53090000       0.90260000       0.06660000
   196  H          0.46910000       0.90260000       0.43340000
   197  H          0.96910000       0.59740000       0.93340000
   198  H          0.03090000       0.59740000       0.56660000
   199  H          0.46910000       0.09740000       0.93340000
   200  H          0.53090000       0.09740000       0.56660000
   201  C          0.04369110       0.06314000       0.14152000
   202  C          0.95630890       0.06314000       0.35848000
   203  C          0.54369110       0.56314000       0.14152000
   204  C          0.45630890       0.56314000       0.35848000
   205  C          0.95630890       0.93686000       0.85848000
   206  C          0.04369110       0.93686000       0.64152000
   207  C          0.45630890       0.43686000       0.85848000
   208  C          0.54369110       0.43686000       0.64152000
   209  H          0.06520000       0.95770000       0.16370000
   210  H          0.93480000       0.95770000       0.33630000
   211  H          0.56520000       0.45770000       0.16370000
   212  H          0.43480000       0.45770000       0.33630000
   213  H          0.93480000       0.04230000       0.83630000
   214  H          0.06520000       0.04230000       0.66370000
   215  H          0.43480000       0.54230000       0.83630000
   216  H          0.56520000       0.54230000       0.66370000
   217  H          0.03680000       0.08880000       0.06960000
   218  H          0.96320000       0.08880000       0.43040000
   219  H          0.53680000       0.58880000       0.06960000
   220  H          0.46320000       0.58880000       0.43040000
   221  H          0.96320000       0.91120000       0.93040000
   222  H          0.03680000       0.91120000       0.56960000
   223  H          0.46320000       0.41120000       0.93040000
   224  H          0.53680000       0.41120000       0.56960000
   225  H          0.01240000       0.03980000       0.14880000
   226  H          0.98760000       0.03980000       0.35120000
   227  H          0.51240000       0.53980000       0.14880000
   228  H          0.48760000       0.53980000       0.35120000
   229  H          0.98760000       0.96020000       0.85120000
   230  H          0.01240000       0.96020000       0.64880000
   231  H          0.48760000       0.46020000       0.85120000
   232  H          0.51240000       0.46020000       0.64880000
   233  S          0.07430200       0.25180800       0.21923400
   234  S          0.92569800       0.25180800       0.28076600
   235  S          0.57430200       0.75180800       0.21923400
   236  S          0.42569800       0.75180800       0.28076600
   237  S          0.92569800       0.74819200       0.78076600
   238  S          0.07430200       0.74819200       0.71923400
   239  S          0.42569800       0.24819200       0.78076600
   240  S          0.57430200       0.24819200       0.71923400
