data_YAKWEP
_symmetry_space_group_name_H-M    'P1'
_symmetry_Int_Tables_number       1
loop_
_symmetry_equiv_pos_site_id
_symmetry_equiv_pos_as_xyz
1 x,y,z
_cell_length_a                   6.04905
_cell_length_b                   14.008816
_cell_length_c                   27.9893
_cell_angle_alpha                90.0
_cell_angle_beta                 90.0
_cell_angle_gamma                90.0
loop_
_atom_site_label
_atom_site_type_symbol
_atom_site_fract_x
_atom_site_fract_y
_atom_site_fract_z
     1  O          0.15685000       0.12475180       0.22225100
     2  O          0.34315000       0.87524820       0.72225100
     3  O          0.84315000       0.62475180       0.27774900
     4  O          0.65685000       0.37524820       0.77774900
     5  O          0.51415000       0.19364180       0.20893900
     6  O         -0.01415000       0.80635820       0.70893900
     7  O          0.48585000       0.69364180       0.29106100
     8  O          0.01415000       0.30635820       0.79106100
     9  N          0.18556000       0.30112000       0.22351110
    10  N          0.31444000       0.69888000       0.72351110
    11  N          0.81444000       0.80112000       0.27648890
    12  N          0.68556000       0.19888000       0.77648890
    13  N          0.94204000       0.40152000       0.19418120
    14  N          0.55796000       0.59848000       0.69418120
    15  N          0.05796000       0.90152000       0.30581880
    16  N          0.44204000       0.09848000       0.80581880
    17  B          0.30727000       0.20473000       0.23767160
    18  B          0.19273000       0.79527000       0.73767160
    19  B          0.69273000       0.70473000       0.26232840
    20  B          0.80727000       0.29527000       0.76232840
    21  C          0.24457000       0.39303000       0.23791140
    22  C          0.25543000       0.60697000       0.73791140
    23  C          0.75543000       0.89303000       0.26208860
    24  C          0.74457000       0.10697000       0.76208860
    25  H          0.36820000       0.40930000       0.25720000
    26  H          0.13180000       0.59070000       0.75720000
    27  H          0.63180000       0.90930000       0.24280000
    28  H          0.86820000       0.09070000       0.74280000
    29  C          0.09437000       0.45513000       0.21959150
    30  C          0.40563000       0.54487000       0.71959150
    31  C          0.90563000       0.95513000       0.28040850
    32  C          0.59437000       0.04487000       0.78040850
    33  H          0.09380000       0.52240000       0.22350000
    34  H          0.40620000       0.47760000       0.72350000
    35  H          0.90620000       0.02240000       0.27650000
    36  H          0.59380000       0.97760000       0.77650000
    37  C          0.00227000       0.30913000       0.19730140
    38  C          0.49773000       0.69087000       0.69730140
    39  C         -0.00227000       0.80913000       0.30269860
    40  C          0.50227000       0.19087000       0.80269860
    41  H          0.92540000       0.25730000       0.18300000
    42  H          0.57460000       0.74270000       0.68300000
    43  H          0.07460000       0.75730000       0.31700000
    44  H          0.42540000       0.24270000       0.81700000
    45  C          0.74812000       0.43833000       0.16817180
    46  C          0.75188000       0.56167000       0.66817180
    47  C          0.25188000       0.93833000       0.33182820
    48  C          0.24812000       0.06167000       0.83182820
    49  H          0.79530000       0.46380000       0.13720000
    50  H          0.70470000       0.53620000       0.63720000
    51  H          0.20470000       0.96380000       0.36280000
    52  H          0.29530000       0.03620000       0.86280000
    53  H          0.67850000       0.48920000       0.18690000
    54  H          0.82150000       0.51080000       0.68690000
    55  H          0.32150000       0.98920000       0.31310000
    56  H          0.17850000       0.01080000       0.81310000
    57  H          0.64190000       0.38650000       0.16320000
    58  H          0.85810000       0.61350000       0.66320000
    59  H          0.35810000       0.88650000       0.33680000
    60  H          0.14190000       0.11350000       0.83680000
    61  C          0.28867000       0.06533000       0.19540130
    62  C          0.21133000       0.93467000       0.69540130
    63  C          0.71133000       0.56533000       0.30459870
    64  C          0.78867000       0.43467000       0.80459870
    65  C          0.23477000       0.97557000       0.17764150
    66  C          0.26523000       0.02443000       0.67764150
    67  C          0.76523000       0.47557000       0.32235850
    68  C          0.73477000       0.52443000       0.82235850
    69  H          0.09480000       0.94740000       0.18380000
    70  H          0.40520000       0.05260000       0.68380000
    71  H          0.90520000       0.44740000       0.31620000
    72  H          0.59480000       0.55260000       0.81620000
    73  C          0.39597000       0.92847000       0.15016140
    74  C          0.10403000       0.07153000       0.65016140
    75  C          0.60403000       0.42847000       0.34983860
    76  C          0.89597000       0.57153000       0.84983860
    77  H          0.36400000       0.86730000       0.13730000
    78  H          0.13600000       0.13270000       0.63730000
    79  H          0.63600000       0.36730000       0.36270000
    80  H          0.86400000       0.63270000       0.86270000
    81  C          0.60208000       0.96987000       0.14150150
    82  C          0.89792000       0.03013000       0.64150150
    83  C          0.39792000       0.46987000       0.35849850
    84  C          0.10208000       0.53013000       0.85849850
    85  H          0.70730000       0.93670000       0.12260000
    86  H          0.79270000       0.06330000       0.62260000
    87  H          0.29270000       0.43670000       0.37740000
    88  H          0.20730000       0.56330000       0.87740000
    89  C          0.65617000       0.06013000       0.16029140
    90  C          0.84383000       0.93987000       0.66029140
    91  C          0.34383000       0.56013000       0.33970860
    92  C          0.15617000       0.43987000       0.83970860
    93  H          0.79690000       0.08810000       0.15480000
    94  H          0.70310000       0.91190000       0.65480000
    95  H          0.20310000       0.58810000       0.34520000
    96  H          0.29690000       0.41190000       0.84520000
    97  C          0.49667000       0.10653000       0.18714130
    98  C          0.00333000       0.89347000       0.68714130
    99  C          0.50333000       0.60653000       0.31285870
   100  C         -0.00333000       0.39347000       0.81285870
   101  C          0.34836000       0.20223000       0.29430130
   102  C          0.15164000       0.79777000       0.79430130
   103  C          0.65164000       0.70223000       0.20569870
   104  C          0.84836000       0.29777000       0.70569870
   105  C          0.55007000       0.17083000       0.31359140
   106  C          0.94993000       0.82917000       0.81359140
   107  C          0.44993000       0.67083000       0.18640860
   108  C          0.05007000       0.32917000       0.68640860
   109  H          0.67160000       0.15970000       0.29280000
   110  H          0.82840000       0.84030000       0.79280000
   111  H          0.32840000       0.65970000       0.20720000
   112  H          0.17160000       0.34030000       0.70720000
   113  C          0.57597000       0.15553000       0.36282140
   114  C          0.92403000       0.84447000       0.86282140
   115  C          0.42403000       0.65553000       0.13717860
   116  C          0.07597000       0.34447000       0.63717860
   117  H          0.71520000       0.13550000       0.37490000
   118  H          0.78480000       0.86450000       0.87490000
   119  H          0.28480000       0.63550000       0.12510000
   120  H          0.21520000       0.36450000       0.62510000
   121  C          0.39937000       0.16943000       0.39444140
   122  C          0.10063000       0.83057000       0.89444140
   123  C          0.60063000       0.66943000       0.10555860
   124  C          0.89937000       0.33057000       0.60555860
   125  C          0.19846000       0.20353000       0.37566140
   126  C          0.30154000       0.79647000       0.87566140
   127  C          0.80154000       0.70353000       0.12433860
   128  C          0.69846000       0.29647000       0.62433860
   129  H          0.07780000       0.21600000       0.39650000
   130  H          0.42220000       0.78400000       0.89650000
   131  H          0.92220000       0.71600000       0.10350000
   132  H          0.57780000       0.28400000       0.60350000
   133  C          0.17567000       0.21883000       0.32693140
   134  C          0.32433000       0.78117000       0.82693140
   135  C          0.82433000       0.71883000       0.17306860
   136  C          0.67567000       0.28117000       0.67306860
   137  H          0.03790000       0.24150000       0.31510000
   138  H          0.46210000       0.75850000       0.81510000
   139  H          0.96210000       0.74150000       0.18490000
   140  H          0.53790000       0.25850000       0.68490000
   141  C          0.41896000       0.14623000       0.44638140
   142  C          0.08104000       0.85377000       0.94638140
   143  C          0.58104000       0.64623000       0.05361860
   144  C          0.91896000       0.35377000       0.55361860
   145  C          0.61427000       0.16543000       0.47232140
   146  C          0.88573000       0.83457000       0.97232140
   147  C          0.38573000       0.66543000       0.02767860
   148  C          0.11427000       0.33457000       0.52767860
   149  H          0.73600000       0.19500000       0.45690000
   150  H          0.76400000       0.80500000       0.95690000
   151  H          0.26400000       0.69500000       0.04310000
   152  H          0.23600000       0.30500000       0.54310000
   153  C          0.62887000       0.14103000       0.52038150
   154  C          0.87113000       0.85897000       0.02038150
   155  C          0.37113000       0.64103000       0.97961850
   156  C          0.12887000       0.35897000       0.47961850
   157  H          0.75990000       0.15510000       0.53770000
   158  H          0.74010000       0.84490000       0.03770000
   159  H          0.24010000       0.65510000       0.96230000
   160  H          0.25990000       0.34490000       0.46230000
   161  C          0.45268000       0.09623000       0.54338150
   162  C          0.04732000       0.90377000       0.04338150
   163  C          0.54732000       0.59623000       0.95661850
   164  C          0.95268000       0.40377000       0.45661850
   165  H          0.46450000       0.07900000       0.57610000
   166  H          0.03550000       0.92100000       0.07610000
   167  H          0.53550000       0.57900000       0.92390000
   168  H          0.96450000       0.42100000       0.42390000
   169  C          0.25797000       0.07663000       0.51806150
   170  C          0.24203000       0.92337000       0.01806150
   171  C          0.74203000       0.57663000       0.98193850
   172  C          0.75797000       0.42337000       0.48193850
   173  H          0.13660000       0.04690000       0.53360000
   174  H          0.36340000       0.95310000       0.03360000
   175  H          0.86340000       0.54690000       0.96640000
   176  H          0.63660000       0.45310000       0.46640000
   177  C          0.24377000       0.10093000       0.47017140
   178  C          0.25623000       0.89907000       0.97017140
   179  C          0.75623000       0.60093000       0.02982860
   180  C          0.74377000       0.39907000       0.52982860
   181  H          0.11220000       0.08660000       0.45300000
   182  H          0.38780000       0.91340000       0.95300000
   183  H          0.88780000       0.58660000       0.04700000
   184  H          0.61220000       0.41340000       0.54700000
   185  C          0.16018000       0.33253000       0.07321150
   186  C          0.33982000       0.66747000       0.57321150
   187  C          0.83982000       0.83253000       0.42678850
   188  C          0.66018000       0.16747000       0.92678850
   189  C          0.24478000       0.24493000       0.08763150
   190  C          0.25522000       0.75507000       0.58763150
   191  C          0.75522000       0.74493000       0.41236850
   192  C          0.74478000       0.25507000       0.91236850
   193  H          0.38410000       0.24260000       0.10320000
   194  H          0.11590000       0.75740000       0.60320000
   195  H          0.61590000       0.74260000       0.39680000
   196  H          0.88410000       0.25740000       0.89680000
   197  C          0.12979000       0.16083000       0.07971150
   198  C          0.37021000       0.83917000       0.57971150
   199  C          0.87021000       0.66083000       0.42028850
   200  C          0.62979000       0.33917000       0.92028850
   201  H          0.19110000       0.10150000       0.08940000
   202  H          0.30890000       0.89850000       0.58940000
   203  H          0.80890000       0.60150000       0.41060000
   204  H          0.69110000       0.39850000       0.91060000
   205  C          0.92212000       0.16353000       0.05729160
   206  C          0.57788000       0.83647000       0.55729160
   207  C          0.07788000       0.66353000       0.44270840
   208  C          0.42212000       0.33647000       0.94270840
   209  H          0.84280000       0.10600000       0.05180000
   210  H          0.65720000       0.89400000       0.55180000
   211  H          0.15720000       0.60600000       0.44820000
   212  H          0.34280000       0.39400000       0.94820000
   213  C          0.83342000       0.25033000       0.04321160
   214  C          0.66658000       0.74967000       0.54321160
   215  C          0.16658000       0.75033000       0.45678840
   216  C          0.33342000       0.24967000       0.95678840
   217  H          0.69220000       0.25250000       0.02840000
   218  H          0.80780000       0.74750000       0.52840000
   219  H          0.30780000       0.75250000       0.47160000
   220  H          0.19220000       0.24750000       0.97160000
   221  C          0.95153000       0.33423000       0.05077150
   222  C          0.54847000       0.66577000       0.55077150
   223  C          0.04847000       0.83423000       0.44922850
   224  C          0.45153000       0.16577000       0.94922850
   225  H          0.89090000       0.39340000       0.04070000
   226  H          0.60910000       0.60660000       0.54070000
   227  H          0.10910000       0.89340000       0.45930000
   228  H          0.39090000       0.10660000       0.95930000
   229  C          0.28869000       0.42433000       0.08082000
   230  C          0.21131000       0.57567000       0.58082000
   231  C          0.71131000       0.92433000       0.41918000
   232  C          0.78869000       0.07567000       0.91918000
   233  H          0.29900000       0.43790000       0.11510000
   234  H          0.20100000       0.56210000       0.61510000
   235  H          0.70100000       0.93790000       0.38490000
   236  H          0.79900000       0.06210000       0.88490000
   237  H          0.21230000       0.47700000       0.06470000
   238  H          0.28770000       0.52300000       0.56470000
   239  H          0.78770000       0.97700000       0.43530000
   240  H          0.71230000       0.02300000       0.93530000
   241  H          0.43750000       0.41740000       0.06740000
   242  H          0.06250000       0.58260000       0.56740000
   243  H          0.56250000       0.91740000       0.43260000
   244  H          0.93750000       0.08260000       0.93260000
