data_YALJUT
_symmetry_space_group_name_H-M    'P1'
_symmetry_Int_Tables_number       1
loop_
_symmetry_equiv_pos_site_id
_symmetry_equiv_pos_as_xyz
1 x,y,z
_cell_length_a                   4.424911
_cell_length_b                   18.6665
_cell_length_c                   24.4656
_cell_angle_alpha                90.0
_cell_angle_beta                 93.3389
_cell_angle_gamma                90.0
loop_
_atom_site_label
_atom_site_type_symbol
_atom_site_fract_x
_atom_site_fract_y
_atom_site_fract_z
     1  I          0.85852700       0.01768200       0.87566800
     2  I          0.64147300       0.51768200       0.62433200
     3  I          0.14147300       0.98231800       0.12433200
     4  I          0.35852700       0.48231800       0.37566800
     5  F          0.74927000       0.12830160       0.97566880
     6  F          0.75073000       0.62830160       0.52433120
     7  F          0.25073000       0.87169840       0.02433120
     8  F          0.24927000       0.37169840       0.47566880
     9  F          0.54198000       0.88514830       0.93311870
    10  F          0.95802000       0.38514830       0.56688130
    11  F          0.45802000       0.11485170       0.06688130
    12  F          0.04198000       0.61485170       0.43311870
    13  C          0.62621100       0.06383000       0.98678000
    14  C          0.87378900       0.56383000       0.51322000
    15  C          0.37378900       0.93617000       0.01322000
    16  C          0.12621100       0.43617000       0.48678000
    17  C          0.52711200       0.94327000       0.96610810
    18  C         -0.02711200       0.44327000       0.53389190
    19  C          0.47288800       0.05673000       0.03389190
    20  C          0.02711200       0.55673000       0.46610810
    21  C          0.65531100       0.00723000       0.95138000
    22  C          0.84468900       0.50723000       0.54862000
    23  C          0.34468900      -0.00723000       0.04862000
    24  C          0.15531100       0.49277000       0.45138000
    25  O          0.40068000       0.28382000       0.87325140
    26  O          0.09932000       0.78382000       0.62674860
    27  O          0.59932000       0.71618000       0.12674860
    28  O          0.90068000       0.21618000       0.37325140
    29  O          0.48997000       0.24592000       0.75708140
    30  O          0.01003000       0.74592000       0.74291860
    31  O          0.51003000       0.75408000       0.24291860
    32  O         -0.01003000       0.25408000       0.25708140
    33  O          0.46557000       0.22197180       0.63126130
    34  O          0.03443000       0.72197180       0.86873870
    35  O          0.53443000       0.77802820       0.36873870
    36  O          0.96557000       0.27802820       0.13126130
    37  O          0.11457000       0.12200180       0.56187130
    38  O          0.38543000       0.62200180       0.93812870
    39  O          0.88543000       0.87799820       0.43812870
    40  O          0.61457000       0.37799820       0.06187130
    41  N          0.10929000       0.01792000       0.77555170
    42  N          0.39071000       0.51792000       0.72444830
    43  N          0.89071000       0.98208000       0.22444830
    44  N          0.60929000       0.48208000       0.27555170
    45  C          0.23381200       0.27943000       0.92082000
    46  C          0.26618800       0.77943000       0.57918000
    47  C          0.76618800       0.72057000       0.07918000
    48  C          0.73381200       0.22057000       0.42082000
    49  H          0.03250000       0.26290000       0.91100000
    50  H          0.46750000       0.76290000       0.58900000
    51  H         -0.03250000       0.73710000       0.08900000
    52  H          0.53250000       0.23710000       0.41100000
    53  H          0.22410000       0.32600000       0.93740000
    54  H          0.27590000       0.82600000       0.56260000
    55  H          0.77590000       0.67400000       0.06260000
    56  H          0.72410000       0.17400000       0.43740000
    57  H          0.33170000       0.24660000       0.94630000
    58  H          0.16830000       0.74660000       0.55370000
    59  H          0.66830000       0.75340000       0.05370000
    60  H          0.83170000       0.25340000       0.44630000
    61  C          0.46401100       0.21463000       0.85272000
    62  C          0.03598900       0.71463000       0.64728000
    63  C          0.53598900       0.78537000       0.14728000
    64  C          0.96401100       0.28537000       0.35272000
    65  H          0.27650000       0.19060000       0.84120000
    66  H          0.22350000       0.69060000       0.65880000
    67  H          0.72350000       0.80940000       0.15880000
    68  H          0.77650000       0.30940000       0.34120000
    69  H          0.56720000       0.18600000       0.88120000
    70  H          0.93280000       0.68600000       0.61880000
    71  H          0.43280000       0.81400000       0.11880000
    72  H          0.06720000       0.31400000       0.38120000
    73  C          0.66031100       0.22203000       0.80492000
    74  C          0.83968900       0.72203000       0.69508000
    75  C          0.33968900       0.77797000       0.19508000
    76  C          0.16031100       0.27797000       0.30492000
    77  H          0.82140000       0.25590000       0.81410000
    78  H          0.67860000       0.75590000       0.68590000
    79  H          0.17860000       0.74410000       0.18590000
    80  H          0.32140000       0.24410000       0.31410000
    81  H          0.75230000       0.17610000       0.79760000
    82  H          0.74770000       0.67610000       0.70240000
    83  H          0.24770000       0.82390000       0.20240000
    84  H          0.25230000       0.32390000       0.29760000
    85  C          0.68921100       0.26663000       0.71599190
    86  C          0.81078900       0.76663000       0.78400810
    87  C          0.31078900       0.73337000       0.28400810
    88  C          0.18921100       0.23337000       0.21599190
    89  H          0.82870000       0.22780000       0.70970000
    90  H          0.67130000       0.72780000       0.79030000
    91  H          0.17130000       0.77220000       0.29030000
    92  H          0.32870000       0.27220000       0.20970000
    93  H          0.80670000       0.30790000       0.72850000
    94  H          0.69330000       0.80790000       0.77150000
    95  H          0.19330000       0.69210000       0.27150000
    96  H          0.30670000       0.19210000       0.22850000
    97  C          0.51511100       0.28443000       0.66392000
    98  C         -0.01511100       0.78443000       0.83608000
    99  C          0.48488900       0.71557000       0.33608000
   100  C          0.01511100       0.21557000       0.16392000
   101  H          0.32180000       0.30520000       0.67200000
   102  H          0.17820000       0.80520000       0.82800000
   103  H          0.67820000       0.69480000       0.32800000
   104  H          0.82180000       0.19480000       0.17200000
   105  H          0.62580000       0.31950000       0.64380000
   106  H          0.87420000       0.81950000       0.85620000
   107  H          0.37420000       0.68050000       0.35620000
   108  H          0.12580000       0.18050000       0.14380000
   109  C          0.30931100       0.23863000       0.58085190
   110  C          0.19068900       0.73863000       0.91914810
   111  C          0.69068900       0.76137000       0.41914810
   112  C          0.80931100       0.26137000       0.08085190
   113  H          0.40420000       0.27940000       0.56430000
   114  H          0.09580000       0.77940000       0.93570000
   115  H          0.59580000       0.72060000       0.43570000
   116  H          0.90420000       0.22060000       0.06430000
   117  H          0.10150000       0.25130000       0.58710000
   118  H          0.39850000       0.75130000       0.91290000
   119  H          0.89850000       0.74870000       0.41290000
   120  H          0.60150000       0.24870000       0.08710000
   121  C          0.31411100       0.17543000       0.54288190
   122  C          0.18588900       0.67543000       0.95711810
   123  C          0.68588900       0.82457000       0.45711810
   124  C          0.81411100       0.32457000       0.04288190
   125  H          0.24910000       0.18980000       0.50600000
   126  H          0.25090000       0.68980000       0.99400000
   127  H          0.75090000       0.81020000       0.49400000
   128  H          0.74910000       0.31020000       0.00600000
   129  H          0.51790000       0.15630000       0.54240000
   130  H         -0.01790000       0.65630000       0.95760000
   131  H          0.48210000       0.84370000       0.45760000
   132  H          0.01790000       0.34370000       0.04240000
   133  C          0.06181000       0.06223000       0.52977180
   134  C          0.43819000       0.56223000       0.97022820
   135  C          0.93819000       0.93777000       0.47022820
   136  C          0.56181000       0.43777000       0.02977180
   137  C          0.18991000       0.05123000       0.48038190
   138  C          0.31009000       0.55123000       0.01961810
   139  C          0.81009000       0.94877000       0.51961810
   140  C          0.68991000       0.44877000       0.98038190
   141  H          0.31830000       0.08590000       0.46740000
   142  H          0.18170000       0.58590000       0.03260000
   143  H          0.68170000       0.91410000       0.53260000
   144  H          0.81830000       0.41410000       0.96740000
   145  C          0.86809000       0.01053000       0.55062000
   146  C          0.63191000       0.51053000       0.94938000
   147  C          0.13191000       0.98947000       0.44938000
   148  C          0.36809000       0.48947000       0.05062000
   149  C          0.72799000       0.02403000       0.60215190
   150  C          0.77201000       0.52403000       0.89784810
   151  C          0.27201000       0.97597000       0.39784810
   152  C          0.22799000       0.47597000       0.10215190
   153  H          0.74670000       0.06990000       0.61680000
   154  H          0.75330000       0.56990000       0.88320000
   155  H          0.25330000       0.93010000       0.38320000
   156  H          0.24670000       0.43010000       0.11680000
   157  C          0.57368900       0.97537000       0.63042000
   158  C          0.92631100       0.47537000       0.86958000
   159  C          0.42631100       0.02463000       0.36958000
   160  C          0.07368900       0.52463000       0.13042000
   161  H          0.56750000       0.92840000       0.61770000
   162  H          0.93250000       0.42840000       0.88230000
   163  H          0.43250000       0.07160000       0.38230000
   164  H          0.06750000       0.57160000       0.11770000
   165  C          0.41528900       0.99197000       0.67982000
   166  C          0.08471100       0.49197000       0.82018000
   167  C          0.58471100       0.00803000       0.32018000
   168  C          0.91528900       0.50803000       0.17982000
   169  C          0.37838900       0.06153000       0.69952000
   170  C          0.12161100       0.56153000       0.80048000
   171  C          0.62161100       0.93847000       0.30048000
   172  C          0.87838900       0.43847000       0.19952000
   173  H          0.45500000       0.10050000       0.68120000
   174  H          0.04500000       0.60050000       0.81880000
   175  H          0.54500000       0.89950000       0.31880000
   176  H          0.95500000       0.39950000       0.18120000
   177  C          0.22648900       0.07143000       0.74672000
   178  C          0.27351100       0.57143000       0.75328000
   179  C          0.77351100       0.92857000       0.25328000
   180  C          0.72648900       0.42857000       0.24672000
   181  H          0.20410000       0.11800000       0.75930000
   182  H          0.29590000       0.61800000       0.74070000
   183  H          0.79590000       0.88200000       0.24070000
   184  H          0.70410000       0.38200000       0.25930000
   185  C          0.14378800       0.95217000       0.75602000
   186  C          0.35621200       0.45217000       0.74398000
   187  C          0.85621200       0.04783000       0.24398000
   188  C          0.64378800       0.54783000       0.25602000
   189  H          0.06390000       0.91430000       0.77510000
   190  H          0.43610000       0.41430000       0.72490000
   191  H          0.93610000       0.08570000       0.22490000
   192  H          0.56390000       0.58570000       0.27510000
   193  C          0.28978900       0.93627000       0.70922000
   194  C          0.21021100       0.43627000       0.79078000
   195  C          0.71021100       0.06373000       0.29078000
   196  C          0.78978900       0.56373000       0.20922000
   197  H          0.30460000       0.88910000       0.69740000
   198  H          0.19540000       0.38910000       0.80260000
   199  H          0.69540000       0.11090000       0.30260000
   200  H          0.80460000       0.61090000       0.19740000
