data_YANNUZ
_symmetry_space_group_name_H-M    'P1'
_symmetry_Int_Tables_number       1
loop_
_symmetry_equiv_pos_site_id
_symmetry_equiv_pos_as_xyz
1 x,y,z
_cell_length_a                   16.3504
_cell_length_b                   7.471319
_cell_length_c                   15.3064
_cell_angle_alpha                90.0
_cell_angle_beta                 111.4934
_cell_angle_gamma                90.0
loop_
_atom_site_label
_atom_site_type_symbol
_atom_site_fract_x
_atom_site_fract_y
_atom_site_fract_z
     1  C          0.24498190       0.95686000       0.02962000
     2  C          0.75501810       0.45686000       0.47038000
     3  C          0.75501810       0.04314000       0.97038000
     4  C          0.24498190       0.54314000       0.52962000
     5  C          0.31678190      -0.00434000       0.11142000
     6  C          0.68321810       0.49566000       0.38858000
     7  C          0.68321810       0.00434000       0.88858000
     8  C          0.31678190       0.50434000       0.61142000
     9  C          0.39321190       0.06494000       0.10382000
    10  C          0.60678810       0.56494000       0.39618000
    11  C          0.60678810       0.93506000       0.89618000
    12  C          0.39321190       0.43506000       0.60382000
    13  C          0.39800190       0.09444000       0.01702000
    14  C          0.60199810       0.59444000       0.48298000
    15  C          0.60199810       0.90556000       0.98298000
    16  C          0.39800190       0.40556000       0.51702000
    17  C          0.32772000       0.05254000       0.93638000
    18  C          0.67228000       0.55254000       0.56362000
    19  C          0.67228000       0.94746000       0.06362000
    20  C          0.32772000       0.44746000       0.43638000
    21  C          0.25182000      -0.01584000       0.94368000
    22  C          0.74818000       0.48416000       0.55632000
    23  C          0.74818000       0.01584000       0.05632000
    24  C          0.25182000       0.51584000       0.44368000
    25  F          0.46377110       0.10533000       0.18017140
    26  F          0.53622890       0.60533000       0.31982860
    27  F          0.53622890       0.89467000       0.81982860
    28  F          0.46377110       0.39467000       0.68017140
    29  F          0.47107120       0.16603000       0.01010150
    30  F          0.52892880       0.66603000       0.48989850
    31  F          0.52892880       0.83397000       0.98989850
    32  F          0.47107120       0.33397000       0.51010150
    33  F          0.33346130       0.07913000       0.85197860
    34  F          0.66653870       0.57913000       0.64802140
    35  F          0.66653870       0.92087000       0.14802140
    36  F          0.33346130       0.42087000       0.35197860
    37  F          0.18397120       0.94757000       0.86274870
    38  F          0.81602880       0.44757000       0.63725130
    39  F          0.81602880       0.05243000       0.13725130
    40  F          0.18397120       0.55243000       0.36274870
    41  I          0.12557212       0.85491700       0.03389314
    42  I          0.87442788       0.35491700       0.46610686
    43  I          0.87442788       0.14508300       0.96610686
    44  I          0.12557212       0.64508300       0.53389314
    45  I          0.31495113       0.96747700       0.24684614
    46  I          0.68504887       0.46747700       0.25315386
    47  I          0.68504887       0.03252300       0.75315386
    48  I          0.31495113       0.53252300       0.74684614
    49  C          0.37902000       0.56674000      -0.00448000
    50  C          0.62098000       0.06674000       0.50448000
    51  C          0.62098000       0.43326000       0.00448000
    52  C          0.37902000       0.93326000       0.49552000
    53  H          0.41790000       0.60650000       0.96620000
    54  H          0.58210000       0.10650000       0.53380000
    55  H          0.58210000       0.39350000       0.03380000
    56  H          0.41790000       0.89350000       0.46620000
    57  C          0.41082000       0.56294000       0.09382000
    58  C          0.58918000       0.06294000       0.40618000
    59  C          0.58918000       0.43706000       0.90618000
    60  C          0.41082000       0.93706000       0.59382000
    61  H          0.46940000       0.59820000       0.12960000
    62  H          0.53060000       0.09820000       0.37040000
    63  H          0.53060000       0.40180000       0.87040000
    64  H          0.46940000       0.90180000       0.62960000
    65  C          0.35542000       0.50714000       0.13672000
    66  C          0.64458000       0.00714000       0.36328000
    67  C          0.64458000       0.49286000       0.86328000
    68  C          0.35542000      -0.00714000       0.63672000
    69  H          0.37510000       0.50360000       0.20330000
    70  H          0.62490000       0.00360000       0.29670000
    71  H          0.62490000       0.49640000       0.79670000
    72  H          0.37510000      -0.00360000       0.70330000
    73  C          0.26861190       0.45454000       0.08172000
    74  C          0.73138810       0.95454000       0.41828000
    75  C          0.73138810       0.54546000       0.91828000
    76  C          0.26861190       0.04546000       0.58172000
    77  C          0.20742000       0.39534000       0.12292000
    78  C          0.79258000       0.89534000       0.37708000
    79  C          0.79258000       0.60466000       0.87708000
    80  C          0.20742000       0.10466000       0.62292000
    81  H          0.22520000       0.39030000       0.18930000
    82  H          0.77480000       0.89030000       0.31070000
    83  H          0.77480000       0.60970000       0.81070000
    84  H          0.22520000       0.10970000       0.68930000
    85  C          0.12442000       0.34654000       0.06852000
    86  C          0.87558000       0.84654000       0.43148000
    87  C          0.87558000       0.65346000       0.93148000
    88  C          0.12442000       0.15346000       0.56852000
    89  H          0.08500000       0.30700000       0.09720000
    90  H          0.91500000       0.80700000       0.40280000
    91  H          0.91500000       0.69300000       0.90280000
    92  H          0.08500000       0.19300000       0.59720000
    93  C          0.09563190       0.35394000       0.96832000
    94  C          0.90436810       0.85394000       0.53168000
    95  C          0.90436810       0.64606000       0.03168000
    96  C          0.09563190       0.14606000       0.46832000
    97  C          0.98288000       0.31844000       0.82522000
    98  C          0.01712000       0.81844000       0.67478000
    99  C          0.01712000       0.68156000       0.17478000
   100  C          0.98288000       0.18156000       0.32522000
   101  H          0.92370000       0.28670000       0.79010000
   102  H          0.07630000       0.78670000       0.70990000
   103  H          0.07630000       0.71330000       0.20990000
   104  H          0.92370000       0.21330000       0.29010000
   105  C          0.03482000       0.37565000       0.77592000
   106  C          0.96518000       0.87565000       0.72408000
   107  C          0.96518000       0.62435000       0.22408000
   108  C          0.03482000       0.12435000       0.27592000
   109  H          0.01140000       0.38270000       0.70930000
   110  H         -0.01140000       0.88270000       0.79070000
   111  H         -0.01140000       0.61730000       0.29070000
   112  H          0.01140000       0.11730000       0.20930000
   113  C          0.12102000       0.42154000       0.82612000
   114  C          0.87898000       0.92154000       0.67388000
   115  C          0.87898000       0.57846000       0.17388000
   116  C          0.12102000       0.07846000       0.32612000
   117  H          0.15830000       0.45880000       0.79430000
   118  H          0.84170000       0.95880000       0.70570000
   119  H          0.84170000       0.54120000       0.20570000
   120  H          0.15830000       0.04120000       0.29430000
   121  C          0.15327190       0.41274000       0.92462000
   122  C          0.84672810       0.91274000       0.57538000
   123  C          0.84672810       0.58726000       0.07538000
   124  C          0.15327190       0.08726000       0.42462000
   125  C          0.24289190       0.46334000       0.98302000
   126  C          0.75710810       0.96334000       0.51698000
   127  C          0.75710810       0.53666000       0.01698000
   128  C          0.24289190       0.03666000       0.48302000
   129  N          0.29833170       0.51883000       0.94033190
   130  N          0.70166830       0.01883000       0.55966810
   131  N          0.70166830       0.48117000       0.05966810
   132  N          0.29833170       0.98117000       0.44033190
   133  N          0.01080160       0.30524000       0.91767190
   134  N         -0.01080160       0.80524000       0.58232810
   135  N         -0.01080160       0.69476000       0.08232810
   136  N          0.01080160       0.19476000       0.41767190
