data_YANPAH
_symmetry_space_group_name_H-M    'P1'
_symmetry_Int_Tables_number       1
loop_
_symmetry_equiv_pos_site_id
_symmetry_equiv_pos_as_xyz
1 x,y,z
_cell_length_a                   10.05216
_cell_length_b                   12.732
_cell_length_c                   14.022
_cell_angle_alpha                82.502
_cell_angle_beta                 74.83419
_cell_angle_gamma                85.582
loop_
_atom_site_label
_atom_site_type_symbol
_atom_site_fract_x
_atom_site_fract_y
_atom_site_fract_z
     1  C          0.44511300       0.83701100       0.32131000
     2  C          0.55488700       0.16298900       0.67869000
     3  C          0.43331300       0.77801100       0.41571000
     4  C          0.56668700       0.22198900       0.58429000
     5  C          0.32141400       0.80621100       0.49061000
     6  C          0.67858600       0.19378900       0.50939000
     7  C          0.22991500       0.88561300       0.47891100
     8  C          0.77008500       0.11438700       0.52108900
     9  C          0.24161500       0.94391300       0.38941100
    10  C          0.75838500       0.05608700       0.61058900
    11  C          0.35061400       0.92141300       0.30931100
    12  C          0.64938600       0.07858700       0.69068900
    13  F          0.30359000       0.74997000       0.58366000
    14  F          0.69641000       0.25003000       0.41634000
    15  F          0.12309000       0.90898000       0.55747000
    16  F          0.87691000       0.09102000       0.44253000
    17  F          0.15348000       0.02597000       0.37766000
    18  F          0.84652000       0.97403000       0.62234000
    19  F          0.35598000       0.97767000       0.22056000
    20  F          0.64402000       0.02233000       0.77944000
    21  I          0.60929900       0.81442800       0.19592700
    22  I          0.39070100       0.18557200       0.80407300
    23  I          0.57365100       0.65898800       0.44397700
    24  I          0.42634900       0.34101200       0.55602300
    25  C          0.46621500       0.23321100       0.19111200
    26  C          0.53378500       0.76678900       0.80888800
    27  C          0.58881500       0.17891200       0.14701000
    28  C          0.41118500       0.82108800       0.85299000
    29  C          0.64971400       0.10361200       0.20361000
    30  C          0.35028600       0.89638800       0.79639000
    31  C          0.59801400       0.08411100       0.30419000
    32  C          0.40198600       0.91588900       0.69581000
    33  C          0.47331500       0.13581300       0.34941100
    34  C          0.52668500       0.86418700       0.65058900
    35  C          0.41301500       0.20771200       0.29451100
    36  C          0.58698500       0.79228800       0.70548900
    37  F          0.77128000       0.05397000       0.16146000
    38  F          0.22872000       0.94603000       0.83854000
    39  F          0.65938000       0.01377000       0.35746000
    40  F          0.34062000       0.98623000       0.64254000
    41  F          0.42001000       0.11137000       0.44736000
    42  F          0.57999000       0.88863000       0.55264000
    43  F          0.29939000       0.26027000       0.34156000
    44  F          0.70061000       0.73973000       0.65844000
    45  I          0.36409100       0.34955800       0.11441800
    46  I          0.63590900       0.65044200       0.88558200
    47  I          0.67898100       0.19939800      -0.00847700
    48  I          0.32101900       0.80060200       0.00847700
    49  C          0.33651300       0.47761200       0.88661100
    50  C          0.66348700       0.52238800       0.11338900
    51  H          0.40750000       0.42330000       0.88200000
    52  H          0.59250000       0.57670000       0.11800000
    53  C          0.32221400       0.53751300       0.80161100
    54  C          0.67778600       0.46248700       0.19838900
    55  H          0.38240000       0.52360000       0.73960000
    56  H          0.61760000       0.47640000       0.26040000
    57  C          0.22371500       0.61631200       0.80421100
    58  C          0.77628500       0.38368800       0.19578900
    59  H          0.21680000       0.65830000       0.74440000
    60  H          0.78320000       0.34170000       0.25560000
    61  C          0.13311400       0.63611100       0.89321000
    62  C          0.86688600       0.36388900       0.10679000
    63  C          0.15411500       0.56931200       0.98121000
    64  C          0.84588500       0.43068800       0.01879000
    65  C          0.06341400       0.58411200       0.07591000
    66  C          0.93658600       0.41588800       0.92409000
    67  H          0.07610000       0.53960000       0.13300000
    68  H          0.92390000       0.46040000       0.86700000
    69  C          0.96208400       0.65791200       0.08661100
    70  C          0.03791600       0.34208800       0.91338900
    71  H          0.90220000       0.66410000       0.15060000
    72  H          0.09780000       0.33590000       0.84940000
    73  C          0.94208600       0.72721100       0.00431000
    74  C          0.05791400       0.27278900      -0.00431000
    75  C          0.02451500       0.71981100       0.90801000
    76  C          0.97548500       0.28018900       0.09199000
    77  C          0.00061500       0.79151200       0.82981100
    78  C         -0.00061500       0.20848800       0.17018900
    79  H          0.05600000       0.78730000       0.76410000
    80  H          0.94400000       0.21270000       0.23590000
    81  C          0.89648400       0.86821200       0.84801200
    82  C          0.10351600       0.13178800       0.15198800
    83  H          0.87870000       0.91920000       0.79660000
    84  H          0.12130000       0.08080000       0.20340000
    85  C          0.81908500       0.86721100       0.94531100
    86  C          0.18091500       0.13278900       0.05468900
    87  H          0.74550000       0.91920000       0.95750000
    88  H          0.25450000       0.08080000       0.04250000
    89  N          0.25521200       0.49201000       0.97559000
    90  N          0.74478800       0.50799000       0.02441000
    91  N          0.83518800       0.80349000       0.02209000
    92  N          0.16481200       0.19651000       0.97791000
    93  C          0.05531500       0.84541300       0.21971100
    94  C          0.94468500       0.15458700       0.78028900
    95  H          0.04920000       0.89160000       0.16190000
    96  H          0.95080000       0.10840000       0.83810000
    97  C          0.95358500       0.85851400       0.31021200
    98  C          0.04641500       0.14148600       0.68978800
    99  H          0.88140000       0.91150000       0.31150000
   100  H          0.11860000       0.08850000       0.68850000
   101  C          0.96058600       0.79661100       0.39231000
   102  C          0.03941400       0.20338900       0.60769000
   103  H          0.89560000       0.80660000       0.45360000
   104  H          0.10440000       0.19340000       0.54640000
   105  C          0.06511500       0.71561200       0.38831000
   106  C          0.93488500       0.28438800       0.61169000
   107  C          0.15901400       0.70801100       0.29311100
   108  C          0.84098600       0.29198900       0.70688900
   109  C          0.26291500       0.62291300       0.28431200
   110  C          0.73708500       0.37708700       0.71568800
   111  H          0.32360000       0.61500000       0.22100000
   112  H          0.67640000       0.38500000       0.77900000
   113  C          0.27661400       0.55431200       0.36301100
   114  C          0.72338600       0.44568800       0.63698900
   115  H          0.34600000       0.49870000       0.35430000
   116  H          0.65400000       0.50130000       0.64570000
   117  C          0.18531500       0.56461200       0.46191000
   118  C          0.81468500       0.43538800       0.53809000
   119  C          0.08071300       0.64521200       0.47121100
   120  C          0.91928700       0.35478800       0.52878900
   121  C         -0.00411600       0.64931400       0.57051100
   122  C          0.00411600       0.35068600       0.42948900
   123  H          0.92350000       0.70210000       0.58370000
   124  H          0.07650000       0.29790000       0.41630000
   125  C          0.01931600       0.57801200       0.64491000
   126  C          0.98068400       0.42198800       0.35509000
   127  H          0.96330000       0.58000000       0.71080000
   128  H          0.03670000       0.42000000       0.28920000
   129  C          0.12551500       0.50181200       0.62461100
   130  C          0.87448500       0.49818800       0.37538900
   131  H          0.13970000       0.45180000       0.67790000
   132  H          0.86030000       0.54820000       0.32210000
   133  N          0.15371200       0.77541100       0.21189000
   134  N          0.84628800       0.22458900       0.78811000
   135  N          0.20911200       0.49461000       0.53391000
   136  N          0.79088800       0.50539000       0.46609000
