data_YANPEL
_symmetry_space_group_name_H-M    'P1'
_symmetry_Int_Tables_number       1
loop_
_symmetry_equiv_pos_site_id
_symmetry_equiv_pos_as_xyz
1 x,y,z
_cell_length_a                   15.0078
_cell_length_b                   5.9703
_cell_length_c                   20.19611
_cell_angle_alpha                90.0
_cell_angle_beta                 104.8448
_cell_angle_gamma                90.0
loop_
_atom_site_label
_atom_site_type_symbol
_atom_site_fract_x
_atom_site_fract_y
_atom_site_fract_z
     1  C          0.94662000       0.50556000       0.08180170
     2  C          0.05338000       0.00556000       0.41819830
     3  C          0.05338000       0.49444000       0.91819830
     4  C          0.94662000      -0.00556000       0.58180170
     5  C          0.90252000       0.63215000       0.02501180
     6  C          0.09748000       0.13215000       0.47498820
     7  C          0.09748000       0.36785000       0.97498820
     8  C          0.90252000       0.86785000       0.52501180
     9  C          0.82122000       0.56155000       0.98111840
    10  C          0.17878000       0.06155000       0.51888160
    11  C          0.17878000       0.43845000       0.01888160
    12  C          0.82122000       0.93845000       0.48111840
    13  C          0.78032000       0.36065000       0.99088840
    14  C          0.21968000       0.86065000       0.50911160
    15  C          0.21968000       0.63935000       0.00911160
    16  C          0.78032000       0.13935000       0.49088840
    17  C          0.82513000       0.23285000       0.04702180
    18  C          0.17487000       0.73285000       0.45297820
    19  C          0.17487000       0.76715000       0.95297820
    20  C          0.82513000       0.26715000       0.54702180
    21  C          0.90612000       0.30315000       0.09113170
    22  C          0.09388000       0.80315000       0.40886830
    23  C          0.09388000       0.69685000       0.90886830
    24  C          0.90612000       0.19685000       0.59113170
    25  F          0.93936150       0.82973000       0.01302110
    26  F          0.06063850       0.32973000       0.48697890
    27  F          0.06063850       0.17027000       0.98697890
    28  F          0.93936150       0.67027000       0.51302110
    29  F          0.78123150       0.69703000       0.92827900
    30  F          0.21876850       0.19703000       0.57172100
    31  F          0.21876850       0.30297000       0.07172100
    32  F          0.78123150       0.80297000       0.42827900
    33  F          0.78797140       0.03503000       0.05941100
    34  F          0.21202860       0.53503000       0.44058900
    35  F          0.21202860       0.96497000       0.94058900
    36  F          0.78797140       0.46497000       0.55941100
    37  F          0.94401150       0.17133000       0.14535100
    38  F          0.05598850       0.67133000       0.35464900
    39  F          0.05598850       0.82867000       0.85464900
    40  F          0.94401150       0.32867000       0.64535100
    41  I          0.06386115       0.62106400       0.15241011
    42  I          0.93613885       0.12106400       0.34758989
    43  I          0.93613885       0.37893600       0.84758989
    44  I          0.06386115       0.87893600       0.65241011
    45  I          0.65569115       0.25284300       0.92562590
    46  I          0.34430885       0.75284300       0.57437410
    47  I          0.34430885       0.74715700       0.07437410
    48  I          0.65569115       0.24715700       0.42562590
    49  C          0.16692000       0.02955000       0.26775180
    50  C          0.83308000       0.52955000       0.23224820
    51  C          0.83308000       0.97045000       0.73224820
    52  C          0.16692000       0.47045000       0.76775180
    53  H          0.11030000       0.06120000       0.23520000
    54  H          0.88970000       0.56120000       0.26480000
    55  H          0.88970000       0.93880000       0.76480000
    56  H          0.11030000       0.43880000       0.73520000
    57  C          0.19622000       0.17805000       0.32267180
    58  C          0.80378000       0.67805000       0.17732820
    59  C          0.80378000       0.82195000       0.67732820
    60  C          0.19622000       0.32195000       0.82267180
    61  H          0.16030000       0.30570000       0.32700000
    62  H          0.83970000       0.80570000       0.17300000
    63  H          0.83970000       0.69430000       0.67300000
    64  H          0.16030000       0.19430000       0.82700000
    65  C          0.27732000       0.13535000       0.36983170
    66  C          0.72268000       0.63535000       0.13016830
    67  C          0.72268000       0.86465000       0.63016830
    68  C          0.27732000       0.36465000       0.86983170
    69  H          0.29850000       0.23230000       0.40790000
    70  H          0.70150000       0.73230000       0.09210000
    71  H          0.70150000       0.76770000       0.59210000
    72  H          0.29850000       0.26770000       0.90790000
    73  C          0.32932000       0.94495000       0.36136170
    74  C          0.67068000       0.44495000       0.13863830
    75  C          0.67068000       0.05505000       0.63863830
    76  C          0.32932000       0.55505000       0.86136170
    77  C          0.41652000       0.89225000       0.40790170
    78  C          0.58348000       0.39225000       0.09209830
    79  C          0.58348000       0.10775000       0.59209830
    80  C          0.41652000       0.60775000       0.90790170
    81  H          0.44020000      -0.01200000       0.44590000
    82  H          0.55980000       0.48800000       0.05410000
    83  H          0.55980000       0.01200000       0.55410000
    84  H          0.44020000       0.51200000       0.94590000
    85  C          0.46553000       0.71026000       0.39908170
    86  C          0.53447000       0.21026000       0.10091830
    87  C          0.53447000       0.28974000       0.60091830
    88  C          0.46553000       0.78974000       0.89908170
    89  H          0.52250000       0.67880000       0.43120000
    90  H          0.47750000       0.17880000       0.06880000
    91  H          0.47750000       0.32120000       0.56880000
    92  H          0.52250000       0.82120000       0.93120000
    93  C          0.43252000       0.56385000       0.34179160
    94  C          0.56748000       0.06385000       0.15820840
    95  C          0.56748000       0.43615000       0.65820840
    96  C          0.43252000       0.93615000       0.84179160
    97  C          0.45503000       0.24765000       0.28249180
    98  C          0.54497000       0.74765000       0.21750820
    99  C          0.54497000       0.75235000       0.71750820
   100  C          0.45503000       0.25235000       0.78249180
   101  H          0.49110000       0.11980000       0.27870000
   102  H          0.50890000       0.61980000       0.22130000
   103  H          0.50890000       0.88020000       0.72130000
   104  H          0.49110000       0.38020000       0.77870000
   105  C          0.37363000       0.28285000       0.23139180
   106  C          0.62637000       0.78285000       0.26860820
   107  C          0.62637000       0.71715000       0.76860820
   108  C          0.37363000       0.21715000       0.73139180
   109  H          0.35550000       0.18260000       0.19380000
   110  H          0.64450000       0.68260000       0.30620000
   111  H          0.64450000       0.81740000       0.80620000
   112  H          0.35550000       0.31740000       0.69380000
   113  C          0.32032000       0.46585000       0.23685170
   114  C          0.67968000       0.96585000       0.26314830
   115  C          0.67968000       0.53415000       0.76314830
   116  C          0.32032000       0.03415000       0.73685170
   117  H          0.26500000       0.49450000       0.20260000
   118  H          0.73500000      -0.00550000       0.29740000
   119  H          0.73500000       0.50550000       0.79740000
   120  H          0.26500000       0.00550000       0.70260000
   121  C          0.34842000       0.61165000       0.29390170
   122  C          0.65158000       0.11165000       0.20609830
   123  C          0.65158000       0.38835000       0.70609830
   124  C          0.34842000       0.88835000       0.79390170
   125  C          0.29432000       0.80545000       0.30362170
   126  C          0.70568000       0.30545000       0.19637830
   127  C          0.70568000       0.19455000       0.69637830
   128  C          0.29432000       0.69455000       0.80362170
   129  N          0.48472000       0.38194000       0.33587140
   130  N          0.51528000       0.88194000       0.16412860
   131  N          0.51528000       0.61806000       0.66412860
   132  N          0.48472000       0.11806000       0.83587140
   133  N          0.21272000       0.84784000       0.25795150
   134  N          0.78728000       0.34784000       0.24204850
   135  N          0.78728000       0.15216000       0.74204850
   136  N          0.21272000       0.65216000       0.75795150
