data_YASGOQ04
_symmetry_space_group_name_H-M    'P1'
_symmetry_Int_Tables_number       1
loop_
_symmetry_equiv_pos_site_id
_symmetry_equiv_pos_as_xyz
1 x,y,z
_cell_length_a                   4.82063
_cell_length_b                   20.613514
_cell_length_c                   19.140612
_cell_angle_alpha                90.0
_cell_angle_beta                 93.2912
_cell_angle_gamma                90.0
loop_
_atom_site_label
_atom_site_type_symbol
_atom_site_fract_x
_atom_site_fract_y
_atom_site_fract_z
     1  Cl         0.88065170       0.61013400       0.48926400
     2  Cl         0.61934830       0.11013400       0.01073600
     3  Cl         0.11934830       0.38986600       0.51073600
     4  Cl         0.38065170       0.88986600       0.98926400
     5  C          0.68016000       0.59781150       0.56101150
     6  C          0.81984000       0.09781150       0.93898850
     7  C          0.31984000       0.40218850       0.43898850
     8  C          0.18016000       0.90218850       0.06101150
     9  C          0.66307000       0.53486150       0.58455170
    10  C          0.83693000       0.03486150       0.91544830
    11  C          0.33693000       0.46513850       0.41544830
    12  C          0.16307000       0.96513850       0.08455170
    13  C          0.49276000       0.51908150       0.63978160
    14  C          0.00724000       0.01908150       0.86021840
    15  C          0.50724000       0.48091850       0.36021840
    16  C         -0.00724000       0.98091850       0.13978160
    17  N          0.48166000       0.45748120       0.66313140
    18  N          0.01834000       0.95748120       0.83686860
    19  N          0.51834000       0.54251880       0.33686860
    20  N         -0.01834000       0.04251880       0.16313140
    21  C          0.67646000       0.40765150       0.64293170
    22  C          0.82354000       0.90765150       0.85706830
    23  C          0.32354000       0.59234850       0.35706830
    24  C          0.17646000       0.09234850       0.14293170
    25  C          0.63817000       0.34561150       0.68040170
    26  C          0.86183000       0.84561150       0.81959830
    27  C          0.36183000       0.65438850       0.31959830
    28  C          0.13817000       0.15438850       0.18040170
    29  O          0.42355000       0.30657110       0.65465120
    30  O          0.07645000       0.80657110       0.84534880
    31  O          0.57645000       0.69342890       0.34534880
    32  O          0.92355000       0.19342890       0.15465120
    33  C          0.43107000       0.25246160       0.69646180
    34  C          0.06893000       0.75246160       0.80353820
    35  C          0.56893000       0.74753840       0.30353820
    36  C          0.93107000       0.24753840       0.19646180
    37  C          0.63798000       0.25693170       0.74587180
    38  C          0.86202000       0.75693170       0.75412820
    39  C          0.36202000       0.74306830       0.25412820
    40  C          0.13798000       0.24306830       0.24587180
    41  C          0.77138000       0.31701170       0.73559180
    42  C          0.72862000       0.81701170       0.76440820
    43  C          0.22862000       0.68298830       0.26440820
    44  C          0.27138000       0.18298830       0.23559180
    45  H          0.92570000       0.33400000       0.76280000
    46  H          0.57430000       0.83400000       0.73720000
    47  H          0.07430000       0.66600000       0.23720000
    48  H          0.42570000       0.16600000       0.26280000
    49  H          0.68660000       0.22580000       0.78100000
    50  H          0.81340000       0.72580000       0.71900000
    51  H          0.31340000       0.77420000       0.21900000
    52  H          0.18660000       0.27420000       0.28100000
    53  H          0.30710000       0.21670000       0.69120000
    54  H          0.19290000       0.71670000       0.80880000
    55  H          0.69290000       0.78330000       0.30880000
    56  H          0.80710000       0.28330000       0.19120000
    57  H          0.86020000       0.42270000       0.65350000
    58  H          0.63980000       0.92270000       0.84650000
    59  H          0.13980000       0.57730000       0.34650000
    60  H          0.36020000       0.07730000       0.15350000
    61  H          0.65010000       0.40020000       0.59400000
    62  H          0.84990000       0.90020000       0.90600000
    63  H          0.34990000       0.59980000       0.40600000
    64  H          0.15010000       0.09980000       0.09400000
    65  H          0.34110000       0.44610000       0.69370000
    66  H          0.15890000       0.94610000       0.80630000
    67  H          0.65890000       0.55390000       0.30630000
    68  H          0.84110000       0.05390000       0.19370000
    69  C          0.33616000       0.57000150       0.66888160
    70  C          0.16384000       0.07000150       0.83111840
    71  C          0.66384000       0.42999850       0.33111840
    72  C          0.83616000       0.92999850       0.16888160
    73  C          0.36656000       0.63277150       0.64470160
    74  C          0.13344000       0.13277150       0.85529840
    75  C          0.63344000       0.36722850       0.35529840
    76  C          0.86656000       0.86722850       0.14470160
    77  C          0.53706000       0.64861150       0.59125160
    78  C          0.96294000       0.14861150       0.90874840
    79  C          0.46294000       0.35138850       0.40874840
    80  C          0.03706000       0.85138850       0.09125160
    81  S          0.55497160       0.73055400       0.56453400
    82  S          0.94502840       0.23055400       0.93546600
    83  S          0.44502840       0.26944600       0.43546600
    84  S          0.05497160       0.76944600       0.06453400
    85  O          0.42134000       0.76780100       0.61579110
    86  O          0.07866000       0.26780100       0.88420890
    87  O          0.57866000       0.23219900       0.38420890
    88  O          0.92134000       0.73219900       0.11579110
    89  O          0.83774000       0.74549110       0.55065120
    90  O          0.66226000       0.24549110       0.94934880
    91  O          0.16226000       0.25450890       0.44934880
    92  O          0.33774000       0.75450890       0.05065120
    93  N          0.37746000       0.73928140       0.49117150
    94  N          0.12254000       0.23928140       0.00882850
    95  N          0.62254000       0.26071860       0.50882850
    96  N          0.87746000       0.76071860       0.99117150
    97  H          0.20690000       0.73120000       0.49420000
    98  H          0.29310000       0.23120000       0.00580000
    99  H          0.79310000       0.26880000       0.50580000
   100  H          0.70690000       0.76880000      -0.00580000
   101  H          0.44690000       0.72120000       0.45620000
   102  H          0.05310000       0.22120000       0.04380000
   103  H          0.55310000       0.27880000       0.54380000
   104  H          0.94690000       0.77880000       0.95620000
   105  H          0.26580000       0.66650000       0.66560000
   106  H          0.23420000       0.16650000       0.83440000
   107  H          0.73420000       0.33350000       0.33440000
   108  H          0.76580000       0.83350000       0.16560000
   109  C          0.14206000       0.55658150       0.72491160
   110  C          0.35794000       0.05658150       0.77508840
   111  C          0.85794000       0.44341850       0.27508840
   112  C          0.64206000       0.94341850       0.22491160
   113  O          0.03645000       0.60823110       0.75261120
   114  O          0.46355000       0.10823110       0.74738880
   115  O          0.96355000       0.39176890       0.24738880
   116  O          0.53645000       0.89176890       0.25261120
   117  H          0.89387000       0.59830000       0.79330000
   118  H          0.60613000       0.09830000       0.70670000
   119  H          0.10613000       0.40170000       0.20670000
   120  H          0.39387000       0.90170000       0.29330000
   121  O          0.08564000       0.50071110       0.74298110
   122  O          0.41436000       0.00071110       0.75701890
   123  O          0.91436000       0.49928890       0.25701890
   124  O          0.58564000      -0.00071110       0.24298110
   125  H          0.76710000       0.50180000       0.56350000
   126  H          0.73290000       0.00180000       0.93650000
   127  H          0.23290000       0.49820000       0.43650000
   128  H          0.26710000      -0.00180000       0.06350000
   129  O          0.03755000       0.42924110       0.91488120
   130  O          0.46245000       0.92924110       0.58511880
   131  O          0.96245000       0.57075890       0.08511880
   132  O          0.53755000       0.07075890       0.41488120
   133  C          0.28107000       0.43701160       0.90021160
   134  C          0.21893000       0.93701160       0.59978840
   135  C          0.71893000       0.56298840       0.09978840
   136  C          0.78107000       0.06298840       0.40021160
   137  N          0.44916000       0.38852150       0.88484160
   138  N          0.05084000       0.88852150       0.61515840
   139  N          0.55084000       0.61147850       0.11515840
   140  N          0.94916000       0.11147850       0.38484160
   141  H          0.38880000       0.34920000       0.89161900
   142  H          0.11120000       0.84920000       0.60838100
   143  H          0.61120000       0.65080000       0.10838100
   144  H          0.88880000       0.15080000       0.39161900
   145  H          0.61880000       0.39311800       0.88451900
   146  H          0.88120000       0.89311800       0.61548100
   147  H          0.38120000       0.60688200       0.11548100
   148  H          0.11880000       0.10688200       0.38451900
   149  C          0.39916000       0.50433160       0.89754160
   150  C          0.10084000       0.00433160       0.60245840
   151  C          0.60084000       0.49566840       0.10245840
   152  C          0.89916000      -0.00433160       0.39754160
   153  C          0.59996000       0.52082150       0.85176160
   154  C          0.90004000       0.02082150       0.64823840
   155  C          0.40004000       0.47917850       0.14823840
   156  C          0.09996000       0.97917850       0.35176160
   157  N          0.69755000       0.58129130       0.84632140
   158  N          0.80245000       0.08129130       0.65367860
   159  N          0.30245000       0.41870870       0.15367860
   160  N          0.19755000       0.91870870       0.34632140
   161  C          0.60197000       0.62756160       0.88802170
   162  C          0.89803000       0.12756160       0.61197830
   163  C          0.39803000       0.37243840       0.11197830
   164  C          0.10197000       0.87243840       0.38802170
   165  C          0.40407000       0.61520160       0.93562180
   166  C          0.09593000       0.11520160       0.56437820
   167  C          0.59593000       0.38479840       0.06437820
   168  C          0.90407000       0.88479840       0.43562180
   169  C          0.29847000       0.55297160       0.93980170
   170  C          0.20153000       0.05297160       0.56019830
   171  C          0.70153000       0.44702840       0.06019830
   172  C          0.79847000       0.94702840       0.43980170
   173  H          0.15790000       0.54360000       0.97110000
   174  H          0.34210000       0.04360000       0.52890000
   175  H          0.84210000       0.45640000       0.02890000
   176  H          0.65790000       0.95640000       0.47110000
   177  H          0.34160000       0.64870000       0.96500000
   178  H          0.15840000       0.14870000       0.53500000
   179  H          0.65840000       0.35130000       0.03500000
   180  H          0.84160000       0.85130000       0.46500000
   181  H          0.67240000       0.67040000       0.88460000
   182  H          0.82760000       0.17040000       0.61540000
   183  H          0.32760000       0.32960000       0.11540000
   184  H          0.17240000       0.82960000       0.38460000
   185  H          0.67160000       0.48790000       0.82310000
   186  H          0.82840000       0.98790000       0.67690000
   187  H          0.32840000       0.51210000       0.17690000
   188  H          0.17160000       0.01210000       0.32310000
