data_YASSUI
_symmetry_space_group_name_H-M    'P1'
_symmetry_Int_Tables_number       1
loop_
_symmetry_equiv_pos_site_id
_symmetry_equiv_pos_as_xyz
1 x,y,z
_cell_length_a                   10.253816
_cell_length_b                   13.1443
_cell_length_c                   15.1194
_cell_angle_alpha                108.442
_cell_angle_beta                 99.03517
_cell_angle_gamma                91.33415
loop_
_atom_site_label
_atom_site_type_symbol
_atom_site_fract_x
_atom_site_fract_y
_atom_site_fract_z
     1  I          0.31723100       0.75262100       0.52196300
     2  I          0.68276900       0.24737900       0.47803700
     3  I          0.32959800       0.39046100       0.41483900
     4  I          0.67040200       0.60953900       0.58516100
     5  I          0.06656110       0.09379800       0.15888120
     6  I          0.93343890       0.90620200       0.84111880
     7  O          0.26597000       0.64286000       0.13146000
     8  O          0.73403000       0.35714000       0.86854000
     9  O          0.76566000       0.38897000       0.18965000
    10  O          0.23434000       0.61103000       0.81035000
    11  C          0.22319000       0.74349000       0.13361000
    12  C          0.77681000       0.25651000       0.86639000
    13  C          0.53269000       0.39009000       0.15427000
    14  C          0.46731000       0.60991000       0.84573000
    15  C          0.34551100       0.58998000       0.06078000
    16  C          0.65448900       0.41002000       0.93922000
    17  H          0.42430000       0.63590000       0.06760000
    18  H          0.57570000       0.36410000       0.93240000
    19  H          0.29500000       0.57670000      -0.00230000
    20  H          0.70500000       0.42330000       0.00230000
    21  C          0.32031100       0.18599000       0.93951000
    22  C          0.67968900       0.81401000       0.06049000
    23  H          0.33170000       0.12730000       0.96550000
    24  H          0.66830000       0.87270000       0.03450000
    25  H          0.22680000       0.18780000       0.91710000
    26  H          0.77320000       0.81220000       0.08290000
    27  O          0.39467000       0.17267000       0.86414000
    28  O          0.60533000       0.82733000       0.13586000
    29  C          0.64849000       0.38691000       0.23118000
    30  C          0.35151000       0.61309000       0.76882000
    31  H          0.65210000       0.44870000       0.28770000
    32  H          0.34790000       0.55130000       0.71230000
    33  H          0.63940000       0.32180000       0.24770000
    34  H          0.36060000       0.67820000       0.75230000
    35  C          0.54731100       0.59479000       0.22369000
    36  C          0.45268900       0.40521000       0.77631000
    37  H          0.64080000       0.58850000       0.24280000
    38  H          0.35920000       0.41150000       0.75720000
    39  H          0.53950000       0.65140000       0.19520000
    40  H          0.46050000       0.34860000       0.80480000
    41  C          0.37601000       0.29298000       0.01448000
    42  C          0.62399000       0.70702000       0.98552000
    43  C          0.33011000       0.39069000       0.00729000
    44  C          0.66989000       0.60931000      -0.00729000
    45  C          0.47959000       0.29208000       0.08768000
    46  C          0.52041000       0.70792000       0.91232000
    47  C          0.38449000       0.48538000       0.07318000
    48  C          0.61551000       0.51462000       0.92682000
    49  C          0.36821100       0.07779000       0.79141000
    50  C          0.63178900       0.92221000       0.20859000
    51  C          0.48481000       0.48728000       0.14938000
    52  C          0.51519000       0.51272000       0.85062000
    53  C          0.26341000       0.00599000       0.77552000
    54  C          0.73659000      -0.00599000       0.22448000
    55  H          0.20080000       0.01860000       0.81540000
    56  H          0.79920000       0.98140000       0.18460000
    57  C          0.25171100       0.91251000       0.69781000
    58  C          0.74828900       0.08749000       0.30219000
    59  H          0.18390000       0.85980000       0.68780000
    60  H          0.81610000       0.14020000       0.31220000
    61  C          0.22391100       0.38711000       0.92191000
    62  C          0.77608900       0.61289000       0.07809000
    63  H          0.23780000       0.44890000       0.90170000
    64  H          0.76220000       0.55110000       0.09830000
    65  H          0.22640000       0.32210000       0.86930000
    66  H          0.77360000       0.67790000       0.13070000
    67  C          0.19001000       0.88511100       0.06911000
    68  C          0.80999000       0.11488900       0.93089000
    69  H          0.19480000       0.91450000       0.02120000
    70  H          0.80520000       0.08550000       0.97880000
    71  C          0.33691300       0.89849000       0.63811000
    72  C          0.66308700       0.10151000       0.36189000
    73  C          0.52791100       0.18461000       0.09431000
    74  C          0.47208900       0.81539000       0.90569000
    75  H          0.52460000       0.13470000       0.03090000
    76  H          0.47540000       0.86530000       0.96910000
    77  H          0.61950000       0.19620000       0.12600000
    78  H          0.38050000       0.80380000       0.87400000
    79  C          0.88301000       0.38939000       0.24619000
    80  C          0.11699000       0.61061000       0.75381000
    81  C          0.23871000       0.78669000       0.06401000
    82  C          0.76129000       0.21331000       0.93599000
    83  H          0.28100000       0.75030000       0.01440000
    84  H          0.71900000       0.24970000       0.98560000
    85  C         -0.00509000       0.39079000       0.20129000
    86  C          0.00509000       0.60921000       0.79871000
    87  H          0.98310000       0.39120000       0.13910000
    88  H          0.01690000       0.60880000       0.86090000
    89  C          0.90551000       0.38921000       0.33809000
    90  C          0.09449000       0.61079000       0.66191000
    91  H          0.83440000       0.38890000       0.36930000
    92  H          0.16560000       0.61110000       0.63070000
    93  C          0.48161200       0.62461100       0.30939000
    94  C          0.51838800       0.37538900       0.69061000
    95  H          0.38760000       0.62330000       0.28990000
    96  H          0.61240000       0.37670000       0.71010000
    97  H          0.51510000       0.69550000       0.35000000
    98  H          0.48490000       0.30450000       0.65000000
    99  H          0.50000000       0.57400000       0.34280000
   100  H          0.50000000       0.42600000       0.65720000
   101  C          0.03261000       0.38959000       0.38448000
   102  C          0.96739000       0.61041000       0.61552000
   103  H          0.04620000       0.38790000       0.44630000
   104  H          0.95380000       0.61210000       0.55370000
   105  C          0.13721000       0.39229000       0.34101100
   106  C          0.86279000       0.60771000       0.65898900
   107  C          0.45441200       0.06031300       0.72538900
   108  C          0.54558800       0.93968700       0.27461100
   109  H          0.52380000       0.11130000       0.73430000
   110  H          0.47620000       0.88870000       0.26570000
   111  C          0.12121000       0.39131100       0.25001100
   112  C          0.87879000       0.60868900       0.74998900
   113  H          0.19440000       0.39110000       0.22060000
   114  H          0.80560000       0.60890000       0.77940000
   115  C          0.44861300       0.13591100       0.14601200
   116  C          0.55138700       0.86408900       0.85398800
   117  H          0.35620000       0.13610000       0.12230000
   118  H          0.64380000       0.86390000       0.87770000
   119  H          0.46730000       0.17660000       0.21220000
   120  H          0.53270000       0.82340000       0.78780000
   121  H          0.47080000       0.06320000       0.13720000
   122  H          0.52920000       0.93680000       0.86280000
   123  C          0.16421200       0.79511100       0.20921000
   124  C          0.83578800       0.20488900       0.79079000
   125  H          0.15810000       0.76510000       0.25670000
   126  H          0.84190000       0.23490000       0.74330000
   127  C          0.13441100       0.93871000       0.14591500
   128  C          0.86558900       0.06129000       0.85408500
   129  C          0.11691300       0.88731400       0.21301200
   130  C          0.88308700       0.11268600       0.78698800
   131  H          0.07040000       0.92020000       0.26120000
   132  H          0.92960000       0.07980000       0.73880000
   133  C          0.43771400       0.97128800       0.64998900
   134  C          0.56228600       0.02871200       0.35001100
   135  H          0.49500000       0.95980000       0.60640000
   136  H          0.50500000       0.04020000       0.39360000
   137  C          0.09481200       0.38861400       0.95618800
   138  C          0.90518800       0.61138600       0.04381200
   139  H          0.02340000       0.37240000       0.90320000
   140  H          0.97660000       0.62760000       0.09680000
   141  H          0.08720000       0.45860000      -0.00030000
   142  H          0.91280000       0.54140000       0.00030000
   143  H          0.09060000       0.33580000       0.98750000
   144  H          0.90940000       0.66420000       0.01250000
   145  Br         0.93432000       0.66991170       0.34967170
   146  Br         0.06568000       0.33008830       0.65032830
   147  Br         0.78493000       0.97053000       0.53812000
   148  Br         0.21507000       0.02947000       0.46188000
   149  C          0.85130000       0.84630000       0.50230000
   150  C          0.14870000       0.15370000       0.49770000
   151  H          0.93270000       0.85080000       0.54580000
   152  H          0.06730000       0.14920000       0.45420000
   153  H          0.79040000       0.79400000       0.51010000
   154  H          0.20960000       0.20600000       0.48990000
   155  C          0.88230000       0.80230000       0.40730000
   156  C          0.11770000       0.19770000       0.59270000
   157  H          0.94950000       0.85280000       0.40310000
   158  H          0.05050000       0.14720000       0.59690000
   159  H          0.80290000       0.80930000       0.36500000
   160  H          0.19710000       0.19070000       0.63500000
