data_YATJUA
_symmetry_space_group_name_H-M    'P1'
_symmetry_Int_Tables_number       1
loop_
_symmetry_equiv_pos_site_id
_symmetry_equiv_pos_as_xyz
1 x,y,z
_cell_length_a                   6.05242
_cell_length_b                   8.12363
_cell_length_c                   12.86855
_cell_angle_alpha                87.1142
_cell_angle_beta                 85.3282
_cell_angle_gamma                82.3392
loop_
_atom_site_label
_atom_site_type_symbol
_atom_site_fract_x
_atom_site_fract_y
_atom_site_fract_z
     1  N          0.88094000       0.27873000       0.13371180
     2  N          0.11906000       0.72127000       0.86628820
     3  C          0.76515000       0.25363000       0.07232000
     4  C          0.23485000       0.74637000       0.92768000
     5  C          0.62624000       0.22163000      -0.00848830
     6  C          0.37376000       0.77837000       0.00848830
     7  C          0.41174000       0.30803000       0.98641180
     8  C          0.58826000       0.69197000       0.01358820
     9  H          0.35330000       0.38540000       0.03780000
    10  H          0.64670000       0.61460000       0.96220000
    11  C          0.28544000       0.28033000       0.90617180
    12  C          0.71456000       0.71967000       0.09382820
    13  H          0.14010000       0.34020000       0.90290000
    14  H          0.85990000       0.65980000       0.09710000
    15  C          0.36444000       0.16683000       0.82957170
    16  C          0.63556000       0.83317000       0.17042830
    17  C          0.58084000       0.07913000       0.83650190
    18  C          0.41916000       0.92087000       0.16349810
    19  H          0.63840000      -0.00040000       0.78620000
    20  H          0.36160000       0.00040000       0.21380000
    21  C          0.70794000       0.10793000       0.91515190
    22  C          0.29206000       0.89207000       0.08484810
    23  H          0.85440000       0.04960000       0.91790000
    24  H          0.14560000       0.95040000       0.08210000
    25  C          0.22244000       0.14433000       0.74622170
    26  C          0.77756000       0.85567000       0.25377830
    27  H          0.08260000       0.21330000       0.74660000
    28  H          0.91740000       0.78670000       0.25340000
    29  C          0.26754000       0.03803000       0.66994190
    30  C          0.73246000       0.96197000       0.33005810
    31  H          0.40480000       0.96620000       0.67070000
    32  H          0.59520000       0.03380000       0.32930000
    33  C          0.12794000       0.02033000       0.58531170
    34  C          0.87206000       0.97967000       0.41468830
    35  C          0.91226000       0.10713000       0.57720180
    36  C          0.08774000       0.89287000       0.42279820
    37  H          0.85010000       0.18090000       0.63000000
    38  H          0.14990000       0.81910000       0.37000000
    39  C          0.20974000       0.91267000       0.50537190
    40  C          0.79026000       0.08733000       0.49462810
    41  H          0.35430000       0.85150000       0.50850000
    42  H          0.64570000       0.14850000       0.49150000
    43  I          0.20902200       0.38105218       0.29937111
    44  I          0.79097800       0.61894782       0.70062889
    45  C          0.58624000       0.51543000       0.39736180
    46  C          0.41376000       0.48457000       0.60263820
    47  H          0.64560000       0.52580000       0.32700000
    48  H          0.35440000       0.47420000       0.67300000
    49  C          0.38624000       0.45253000       0.41975170
    50  C          0.61376000       0.54747000       0.58024830
    51  C          0.29934000       0.43663000       0.52250170
    52  C          0.70066000       0.56337000       0.47749830
    53  H          0.16170000       0.39300000       0.53790000
    54  H          0.83830000       0.60700000       0.46210000
