data_YAVRUJ
_symmetry_space_group_name_H-M    'P1'
_symmetry_Int_Tables_number       1
loop_
_symmetry_equiv_pos_site_id
_symmetry_equiv_pos_as_xyz
1 x,y,z
_cell_length_a                   7.249418
_cell_length_b                   12.3173
_cell_length_c                   12.5283
_cell_angle_alpha                84.3924
_cell_angle_beta                 77.0854
_cell_angle_gamma                85.1794
loop_
_atom_site_label
_atom_site_type_symbol
_atom_site_fract_x
_atom_site_fract_y
_atom_site_fract_z
     1  P          0.45474110       0.30201600       0.87409300
     2  P          0.54525890       0.69798400       0.12590700
     3  P          0.03529110       0.48096600       0.24859700
     4  P          0.96470890       0.51903400       0.75140300
     5  P          0.24428110       0.03537600       0.26181700
     6  P          0.75571890       0.96462400       0.73818300
     7  O          0.52983000       0.41616180       0.85989820
     8  O          0.47017000       0.58383820       0.14010180
     9  O          0.30783000       0.29469170       0.80580820
    10  O          0.69217000       0.70530830       0.19419180
    11  O          0.61733000       0.21491180       0.85220820
    12  O          0.38267000       0.78508820       0.14779180
    13  O          0.97107000       0.55375190       0.15060190
    14  O          0.02893000       0.44624810       0.84939810
    15  H          0.88540000       0.59130000       0.17930000
    16  H          0.11460000       0.40870000       0.82070000
    17  O          0.87497000       0.45271180       0.34131180
    18  O          0.12503000       0.54728820       0.65868820
    19  O          0.19153000       0.53647170       0.28266180
    20  O          0.80847000       0.46352830       0.71733820
    21  O          0.40813000       0.96725820       0.19535180
    22  O          0.59187000       0.03274180       0.80464820
    23  O          0.05363000       0.98936830       0.28434180
    24  O          0.94637000       0.01063170       0.71565820
    25  O          0.30753000       0.05362000       0.36942000
    26  O          0.69247000       0.94638000       0.63058000
    27  H          0.25470000       0.07540000       0.40940000
    28  H          0.74530000       0.92460000       0.59060000
    29  C          0.33584000       0.28403000       0.01653000
    30  C          0.66416000       0.71597000       0.98347000
    31  C          0.24404000       0.37393000       0.06973000
    32  C          0.75596000       0.62607000       0.93027000
    33  H          0.25060000       0.44140000       0.03740000
    34  H          0.74940000       0.55860000       0.96260000
    35  C          0.14634000       0.36313000       0.18043000
    36  C          0.85366000       0.63687000       0.81957000
    37  C          0.14654000       0.25893000       0.23703000
    38  C          0.85346000       0.74107000       0.76297000
    39  H          0.08340000       0.25430000       0.32130000
    40  H          0.91660000       0.74570000       0.67870000
    41  C          0.23904000       0.16823000       0.18563000
    42  C          0.76096000       0.83177000       0.81437000
    43  C          0.33294000       0.18083000       0.07503000
    44  C          0.66706000       0.81917000       0.92497000
    45  H          0.39050000       0.11730000       0.03730000
    46  H          0.60950000       0.88270000       0.96270000
    47  H          0.67112000       0.43680000       0.78320000
    48  H          0.32888000       0.56320000       0.21680000
    49  O          0.05073000       0.13100190       0.86305190
    50  O          0.94927000       0.86899810       0.13694810
    51  H          0.12810000       0.17910000       0.83380000
    52  H          0.87190000       0.82090000       0.16620000
    53  H         -0.00570000       0.09740000       0.81940000
    54  H          0.00570000       0.90260000       0.18060000
    55  O          0.09374000       0.13842000       0.53232000
    56  O          0.90626000       0.86158000       0.46768000
    57  H          0.10500000       0.10570000       0.47430000
    58  H          0.89500000       0.89430000       0.52570000
    59  H         -0.00460000       0.21240000       0.52540000
    60  H          0.00460000       0.78760000       0.47460000
    61  H          0.03160000       0.09830000       0.59240000
    62  H          0.96840000       0.90170000       0.40760000
    63  O          0.90866000       0.33632000       0.53512000
    64  O          0.09134000       0.66368000       0.46488000
    65  H          0.89640000       0.37240000       0.47140000
    66  H          0.10360000       0.62760000       0.52860000
    67  H          0.88710000       0.38350000       0.59750000
    68  H          0.11290000       0.61650000       0.40250000
    69  N          0.42494000       0.28982000       0.58792000
    70  N          0.57506000       0.71018000       0.41208000
    71  N          0.82294000       0.20592000       0.04152000
    72  N          0.17706000       0.79408000       0.95848000
    73  H          0.86870000       0.18350000       0.97550000
    74  H          0.13130000       0.81650000       0.02450000
    75  H          0.38650000       0.29930000       0.66530000
    76  H          0.61350000       0.70070000       0.33470000
    77  C          0.53605000       0.19973000       0.56263000
    78  C          0.46395000       0.80027000       0.43737000
    79  H          0.55350000       0.14930000       0.61830000
    80  H          0.44650000       0.85070000       0.38170000
    81  C          0.61295000       0.18143000       0.45453000
    82  C          0.38705000       0.81857000       0.54547000
    83  H          0.68250000       0.11930000       0.44430000
    84  H          0.31750000       0.88070000       0.55570000
    85  C          0.57244000       0.25743000       0.37163000
    86  C          0.42756000       0.74257000       0.62837000
    87  C          0.45575000       0.35023000       0.40153000
    88  C          0.54425000       0.64977000       0.59847000
    89  H          0.42750000       0.40130000       0.35230000
    90  H          0.57250000       0.59870000       0.64770000
    91  C          0.38265000       0.36433000       0.50993000
    92  C          0.61735000       0.63567000       0.49007000
    93  H          0.29960000       0.42740000       0.53440000
    94  H          0.70040000       0.57260000       0.46560000
    95  C          0.65564000       0.23993000       0.25423000
    96  C          0.34436000       0.76007000       0.74577000
    97  C          0.70914000       0.13383000       0.22293000
    98  C          0.29086000       0.86617000       0.77707000
    99  H          0.69340000       0.06330000       0.27630000
   100  H          0.30660000       0.93670000       0.72370000
   101  C          0.79355000       0.12023000       0.11513000
   102  C          0.20645000       0.87977000       0.88487000
   103  H          0.82550000       0.05730000       0.09530000
   104  H          0.17450000       0.94270000       0.90470000
   105  C          0.76764000       0.30823000       0.06843000
   106  C          0.23236000       0.69177000       0.93157000
   107  H          0.80850000       0.36430000       0.00530000
   108  H          0.19150000       0.63570000      -0.00530000
   109  C          0.68455000       0.32763000       0.17403000
   110  C          0.31545000       0.67237000       0.82597000
   111  H          0.66950000       0.39630000       0.18030000
   112  H          0.33050000       0.60370000       0.81970000
   113  H          0.74670000       0.92540000       0.59060000
   114  H          0.25330000       0.07460000       0.40940000
   115  H          0.32912000       0.56480000       0.21680000
   116  H          0.67088000       0.43520000       0.78320000
