data_YAVXEA
_symmetry_space_group_name_H-M    'P1'
_symmetry_Int_Tables_number       1
loop_
_symmetry_equiv_pos_site_id
_symmetry_equiv_pos_as_xyz
1 x,y,z
_cell_length_a                   7.991911
_cell_length_b                   9.369614
_cell_length_c                   14.1952
_cell_angle_alpha                94.52512
_cell_angle_beta                 103.68712
_cell_angle_gamma                103.25212
loop_
_atom_site_label
_atom_site_type_symbol
_atom_site_fract_x
_atom_site_fract_y
_atom_site_fract_z
     1  C          0.01795000       0.91475000       0.34513000
     2  C         -0.01795000       0.08525000       0.65487000
     3  H         -0.00580000      -0.00120000       0.32010000
     4  H          0.00580000       0.00120000       0.67990000
     5  C          0.92954000       0.77375000       0.29413000
     6  C          0.07046000       0.22625000       0.70587000
     7  H          0.84570000       0.76350000       0.23450000
     8  H          0.15430000       0.23650000       0.76550000
     9  C          0.96583000       0.64885000       0.33184000
    10  C          0.03417000       0.35115000       0.66816000
    11  H          0.90650000       0.55570000       0.29670000
    12  H          0.09350000       0.44430000       0.70330000
    13  C          0.08886000       0.66015000       0.42064000
    14  C          0.91114000       0.33985000       0.57936000
    15  H          0.11160000       0.57550000       0.44520000
    16  H          0.88840000       0.42450000       0.55480000
    17  C          0.17765000       0.79925000       0.47233000
    18  C          0.82235000       0.20075000       0.52767000
    19  C          0.31515000       0.84345000       0.56513000
    20  C          0.68485000       0.15655000       0.43487000
    21  C          0.39376000       0.75965000       0.62984000
    22  C          0.60624000       0.24035000       0.37016000
    23  H          0.35700000       0.65670000       0.61880000
    24  H          0.64300000       0.34330000       0.38120000
    25  C          0.52836000       0.83346000       0.71124000
    26  C          0.47164000       0.16654000       0.28876000
    27  H          0.58440000       0.77830000       0.75410000
    28  H          0.41560000       0.22170000       0.24590000
    29  C          0.58186000      -0.01424000       0.73093000
    30  C          0.41814000       0.01424000       0.26907000
    31  H          0.67120000       0.03190000       0.78690000
    32  H          0.32880000       0.96810000       0.21310000
    33  C          0.50175000       0.07035000       0.66683000
    34  C          0.49825000       0.92965000       0.33317000
    35  H          0.53720000       0.17320000       0.67990000
    36  H          0.46280000       0.82680000       0.32010000
    37  C          0.36865000       0.00065000       0.58333000
    38  C          0.63135000      -0.00065000       0.41667000
    39  C          0.26195000       0.05855000       0.50193000
    40  C          0.73805000       0.94145000       0.49807000
    41  C          0.14265000       0.92654000       0.43443000
    42  C          0.85735000       0.07346000       0.56557000
    43  C          0.27325000       0.20235000       0.49153000
    44  C          0.72675000       0.79765000       0.50847000
    45  C          0.16036000       0.25074000       0.41213000
    46  C          0.83964000       0.74926000       0.58787000
    47  N          0.07395000       0.29524000       0.35093000
    48  N          0.92605000       0.70476000       0.64907000
    49  C          0.39976000       0.32285000       0.55903000
    50  C          0.60024000       0.67715000       0.44097000
    51  N          0.50005000       0.42164000       0.61093000
    52  N          0.49995000       0.57836000       0.38907000
    53  S          0.28023180       0.60731160       0.96608900
    54  S          0.71976820       0.39268840       0.03391100
    55  C          0.19707000       0.62426000       0.06664000
    56  C          0.80293000       0.37574000       0.93336000
    57  H          0.09930000       0.66330000       0.06380000
    58  H          0.90070000       0.33670000       0.93620000
    59  C          0.27517000       0.58056000       0.14734000
    60  C          0.72483000       0.41944000       0.85266000
    61  H          0.23300000       0.58670000       0.20280000
    62  H          0.76700000       0.41330000       0.79720000
    63  S          0.45887180       0.51072150       0.14801900
    64  S          0.54112820       0.48927850       0.85198100
    65  C          0.44575000       0.52485000       0.02353000
    66  C          0.55425000       0.47515000       0.97647000
    67  S          0.26100150       0.13111140      -0.00656100
    68  S          0.73899850       0.86888860       0.00656100
    69  C          0.32886000       0.04516000       0.90253000
    70  C          0.67114000       0.95484000       0.09747000
    71  H          0.43890000       0.08450000       0.89090000
    72  H          0.56110000       0.91550000       0.10910000
    73  C          0.22076000       0.92225000       0.84983000
    74  C          0.77924000       0.07775000       0.15017000
    75  H          0.25250000       0.87250000       0.80010000
    76  H          0.74750000       0.12750000       0.19990000
    77  S          0.01752150       0.85519140       0.87520800
    78  S         -0.01752150       0.14480860       0.12479200
    79  C          0.05735000      -0.00276000       0.97343000
    80  C          0.94265000       0.00276000       0.02657000
