data_YAWPUK
_symmetry_space_group_name_H-M    'P1'
_symmetry_Int_Tables_number       1
loop_
_symmetry_equiv_pos_site_id
_symmetry_equiv_pos_as_xyz
1 x,y,z
_cell_length_a                   8.733017
_cell_length_b                   9.683019
_cell_length_c                   11.7682
_cell_angle_alpha                105.403
_cell_angle_beta                 91.503
_cell_angle_gamma                102.033
loop_
_atom_site_label
_atom_site_type_symbol
_atom_site_fract_x
_atom_site_fract_y
_atom_site_fract_z
     1  Cl         0.73696700       0.52151700       0.04070500
     2  Cl         0.26303300       0.47848300       0.95929500
     3  Cl         0.43405700       0.84134700       0.16651600
     4  Cl         0.56594300       0.15865300       0.83348400
     5  Cl         0.18987700       0.82797700       0.64070500
     6  Cl         0.81012300       0.17202300       0.35929500
     7  Cl         0.38440800       0.20338700       0.15594600
     8  Cl         0.61559200       0.79661300       0.84405400
     9  Cl         0.08149800       0.45301800       0.24489600
    10  Cl         0.91850200       0.54698200       0.75510400
    11  Cl         0.96704800       0.14593700       0.67120600
    12  Cl         0.03295200       0.85406300       0.32879400
    13  N          0.42823000       0.54013000       0.21052000
    14  N          0.57177000       0.45987000       0.78948000
    15  H          0.46730000       0.48030000       0.15921800
    16  H          0.53270000       0.51970000       0.84078200
    17  H          0.33111800       0.50430000       0.21720000
    18  H          0.66888200       0.49570000       0.78280000
    19  H          0.42740000       0.61330000       0.18020000
    20  H          0.57260000       0.38670000       0.81980000
    21  N          0.69243000       0.41902000       0.26362000
    22  N          0.30757000       0.58098000       0.73638000
    23  H          0.74730000       0.37330000       0.29820000
    24  H          0.25270000       0.62670000       0.70180000
    25  H          0.60430000       0.35020000       0.23020000
    26  H          0.39570000       0.64980000       0.76980000
    27  H          0.74830000       0.44130000       0.20741900
    28  H          0.25170000       0.55870000       0.79258100
    29  N          0.88733000       0.56903000       0.46522000
    30  N          0.11267000       0.43097000       0.53478000
    31  H          0.95420000       0.62030000       0.52481800
    32  H          0.04580000       0.37970000       0.47518200
    33  H          0.94130000       0.54330000       0.40551900
    34  H          0.05870000       0.45670000       0.59448100
    35  N          0.82333000       0.81593000       0.63332000
    36  N          0.17667000       0.18407000       0.36668000
    37  H          0.91320000       0.78830000       0.62820000
    38  H          0.08680000       0.21170000       0.37180000
    39  H          0.84830000       0.90981700       0.63520000
    40  H          0.15170000       0.09018300       0.36480000
    41  H          0.78430000       0.80340000       0.69801500
    42  H          0.21570000       0.19660000       0.30198500
    43  N          0.55123000       0.90493000       0.59432000
    44  N          0.44877000       0.09507000       0.40568000
    45  H          0.45020000       0.90640000       0.60530000
    46  H          0.54980000       0.09360000       0.39470000
    47  H          0.58440000       0.91940000       0.67001600
    48  H          0.41560000       0.08060000       0.32998400
    49  N          0.32863000       0.74883000       0.39372000
    50  N          0.67137000       0.25117000       0.60628000
    51  H          0.25420000       0.67220000       0.35120000
    52  H          0.74580000       0.32780000       0.64880000
    53  H          0.28520000       0.77630000       0.46121700
    54  H          0.71480000       0.22370000       0.53878300
    55  H          0.33930000       0.81430000       0.35120000
    56  H          0.66070000       0.18570000       0.64880000
    57  C          0.51973000       0.59483000       0.32522000
    58  C          0.48027000       0.40517000       0.67478000
    59  C          0.65343000       0.54573000       0.34552000
    60  C          0.34657000       0.45427000       0.65448000
    61  C          0.75563000       0.61743000       0.44822000
    62  C          0.24437000       0.38257000       0.55178000
    63  C          0.71573000       0.73453000       0.52982000
    64  C          0.28427000       0.26547000       0.47018000
    65  C          0.57673000       0.78043000       0.51442000
    66  C          0.42327000       0.21957000       0.48558000
    67  C          0.47743000       0.70593000       0.41192000
    68  C          0.52257000       0.29407000       0.58808000
    69  N          0.78803000       0.86063000       0.13532000
    70  N          0.21197000       0.13937000       0.86468000
    71  H          0.82930000       0.87830000       0.20721400
    72  H          0.17070000       0.12170000       0.79278600
    73  H          0.70020000       0.89130000       0.13820000
    74  H          0.29980000       0.10870000       0.86180000
    75  H          0.76730000       0.76471700       0.10520000
    76  H          0.23270000       0.23528300       0.89480000
    77  N          0.73783000       0.11963000       0.07282000
    78  N          0.26217000       0.88037000       0.92718000
    79  H          0.66030000       0.10640000       0.01920000
    80  H          0.33970000       0.89360000       0.98080000
    81  H          0.69230000       0.10340000       0.13520000
    82  H          0.30770000       0.89660000       0.86480000
    83  N          0.94343000       0.25173000       0.94158000
    84  N          0.05657000       0.74827000       0.05842000
    85  H          0.92930000       0.23830000       0.86498600
    86  H          0.07070000       0.76170000       0.13501400
    87  H          0.86330000       0.28130000       0.96980000
    88  H          0.13670000       0.71870000       0.03020000
    89  H          0.02430000       0.32711900       0.96880000
    90  H          0.97570000       0.67288100       0.03120000
    91  C          0.89763000       0.93423000       0.06742000
    92  C          0.10237000       0.06577000       0.93258000
    93  C          0.86713000       0.05713000       0.03832000
    94  C          0.13287000       0.94287000       0.96168000
    95  C          0.97263000       0.12103000       0.97038000
    96  C          0.02737000       0.87897000       0.02962000
