data_YAWQOD
_symmetry_space_group_name_H-M    'P1'
_symmetry_Int_Tables_number       1
loop_
_symmetry_equiv_pos_site_id
_symmetry_equiv_pos_as_xyz
1 x,y,z
_cell_length_a                   7.779713
_cell_length_b                   12.9832
_cell_length_c                   13.2262
_cell_angle_alpha                63.82016
_cell_angle_beta                 82.61618
_cell_angle_gamma                78.88418
loop_
_atom_site_label
_atom_site_type_symbol
_atom_site_fract_x
_atom_site_fract_y
_atom_site_fract_z
     1  S          0.71419110       0.37930600       0.19064800
     2  S          0.28580890       0.62069400       0.80935200
     3  S          0.37974110       0.31054600       0.19340800
     4  S          0.62025890       0.68945400       0.80659200
     5  S          0.53274110       0.64938600       0.07828800
     6  S          0.46725890       0.35061400       0.92171200
     7  S          0.19873110       0.57610600       0.08579800
     8  S          0.80126890       0.42389400       0.91420200
     9  C          0.86854000       0.15023000       0.30063000
    10  C          0.13146000       0.84977000       0.69937000
    11  H          0.87000000       0.13810000       0.37830000
    12  H          0.13000000       0.86190000       0.62170000
    13  H          0.87000000       0.07560000       0.30000000
    14  H          0.13000000       0.92440000       0.70000000
    15  C          0.50725000       0.07752000       0.30103000
    16  C          0.49275000       0.92248000       0.69897000
    17  H          0.60400000       0.02620000       0.28550000
    18  H          0.39600000       0.97380000       0.71450000
    19  H          0.49110000       0.05020000       0.38220000
    20  H          0.50890000       0.94980000       0.61780000
    21  C          0.70544000       0.23092000       0.24853000
    22  C          0.29456000       0.76908000       0.75147000
    23  C          0.55204000       0.19952000       0.24933000
    24  C          0.44796000       0.80048000       0.75067000
    25  C          0.49614000       0.42112000       0.16053000
    26  C          0.50386000       0.57888000       0.83947000
    27  C          0.41764000       0.53712000       0.11213000
    28  C          0.58236000       0.46288000       0.88787000
    29  C          0.34954000       0.75782000       0.03703000
    30  C          0.65046000       0.24218000       0.96297000
    31  C          0.19684000       0.72432000       0.04173000
    32  C          0.80316000       0.27568000       0.95827000
    33  C          0.37845000       0.87923000       0.00693000
    34  C          0.62155000       0.12077000      -0.00693000
    35  H          0.29340000       0.93420000       0.95340000
    36  H          0.70660000       0.06580000       0.04660000
    37  H          0.36050000       0.89300000       0.07420000
    38  H          0.63950000       0.10700000       0.92580000
    39  C          0.01925000       0.79783000       0.01803000
    40  C          0.98075000       0.20217000       0.98197000
    41  H          0.97110000       0.80840000       0.08470000
    42  H          0.02890000       0.19160000       0.91530000
    43  H          0.03160000       0.87370000       0.95770000
    44  H          0.96840000       0.12630000       0.04230000
    45  O          0.01643000       0.19892000       0.23902000
    46  O          0.98357000       0.80108000       0.76098000
    47  H          0.10510000       0.15940000       0.27190000
    48  H          0.89490000       0.84060000       0.72810000
    49  O          0.35423000       0.07326180       0.25823000
    50  O          0.64577000       0.92673820       0.74177000
    51  H          0.37870000       0.06780000       0.19840000
    52  H          0.62130000       0.93220000       0.80160000
    53  O          0.54883000       0.89722170       0.95978000
    54  O          0.45117000       0.10277830       0.04022000
    55  H          0.61290000       0.88660000       0.00920000
    56  H          0.38710000       0.11340000      -0.00920000
    57  O          0.90307000       0.74833000       0.98737000
    58  O          0.09693000       0.25167000       0.01263000
    59  H          0.92850000       0.75560000       0.92270000
    60  H          0.07150000       0.24440000       0.07730000
    61  F          0.25963000       0.68242150       0.29123180
    62  F          0.74037000       0.31757850       0.70876820
    63  F          0.95097000       0.61567150       0.64164170
    64  F          0.04903000       0.38432850       0.35835830
    65  F          0.41953000       0.46882160       0.37603180
    66  F          0.58047000       0.53117840       0.62396820
    67  F          0.11173000       0.40220150       0.72653170
    68  F          0.88827000       0.59779850       0.27346830
    69  C          0.89795000       0.82973000       0.47943000
    70  C          0.10205000       0.17027000       0.52057000
    71  C          0.03035000       0.85603000       0.29953000
    72  C          0.96965000       0.14397000       0.70047000
    73  C          0.00605000       0.77702000       0.41433000
    74  C         -0.00605000       0.22298000       0.58567000
    75  C          0.09424000       0.66172000       0.46143000
    76  C          0.90576000       0.33828000       0.53857000
    77  C          0.21954000       0.61412000       0.39923000
    78  C          0.78046000       0.38588000       0.60077000
    79  C          0.06724000       0.58222000       0.57373000
    80  C          0.93276000       0.41778000       0.42627000
    81  C          0.30254000       0.50253000       0.44363000
    82  C          0.69746000       0.49747000       0.55637000
    83  C          0.15054000       0.47042000       0.61813000
    84  C          0.84946000       0.52958000       0.38187000
    85  C          0.27414000       0.42212000       0.55633000
    86  C          0.72586000       0.57788000       0.44367000
    87  C          0.35834000       0.30553000       0.60273000
    88  C          0.64166000       0.69447000       0.39727000
    89  C          0.34345000       0.22873000       0.71933000
    90  C          0.65655000       0.77127000       0.28067000
    91  C          0.47995000       0.25673000       0.53903000
    92  C          0.52005000       0.74327000       0.46097000
    93  N          0.81165000       0.87752000       0.52613000
    94  N          0.18835000       0.12248000       0.47387000
    95  N          0.04016000       0.92413000       0.20813000
    96  N          0.95984000       0.07587000       0.79187000
    97  N          0.33935000       0.16392000       0.81183000
    98  N          0.66065000       0.83608000       0.18817000
    99  N          0.57965000       0.21113000       0.49503000
   100  N          0.42035000       0.78887000       0.50497000
