data_YAXSUN
_symmetry_space_group_name_H-M    'P1'
_symmetry_Int_Tables_number       1
loop_
_symmetry_equiv_pos_site_id
_symmetry_equiv_pos_as_xyz
1 x,y,z
_cell_length_a                   7.75923
_cell_length_b                   8.06344
_cell_length_c                   14.90767
_cell_angle_alpha                94.0904
_cell_angle_beta                 92.9613
_cell_angle_gamma                99.3264
loop_
_atom_site_label
_atom_site_type_symbol
_atom_site_fract_x
_atom_site_fract_y
_atom_site_fract_z
     1  Br         0.48693700       0.65776800       0.62657400
     2  Br         0.51306300       0.34223200       0.37342600
     3  N          0.53766000       0.33874000       0.01952000
     4  N          0.46234000       0.66126000       0.98048000
     5  N          0.57386000       0.19824000       0.06192000
     6  N          0.42614000       0.80176000       0.93808000
     7  C          0.72225000       0.15815000       0.03623000
     8  C          0.27775000       0.84185000       0.96377000
     9  N          0.78496000       0.27044000       0.97722000
    10  N          0.21504000       0.72956000       0.02278000
    11  N          0.93056000       0.29264000       0.92772000
    12  N          0.06944000       0.70736000       0.07228000
    13  C          0.92215000       0.42095000       0.88113000
    14  C          0.07785000       0.57905000       0.11887000
    15  S          0.74235880       0.52658140       0.89676700
    16  S          0.25764120       0.47341860       0.10323300
    17  C          0.66885000       0.37825000       0.96993000
    18  C          0.33115000       0.62175000       0.03007000
    19  C          0.80735000       0.01805000       0.06583000
    20  C          0.19265000      -0.01805000       0.93417000
    21  H          0.74710000       0.96890000       0.11460000
    22  H          0.25290000       0.03110000       0.88540000
    23  H          0.92720000       0.06030000       0.08550000
    24  H          0.07280000       0.93970000       0.91450000
    25  H          0.80300000       0.93390000       0.01640000
    26  H          0.19700000       0.06610000       0.98360000
    27  C          0.05675000       0.48055000       0.82053000
    28  C          0.94325000       0.51945000       0.17947000
    29  C          0.20885000       0.40965000       0.81843000
    30  C          0.79115000       0.59035000       0.18157000
    31  H          0.22510000       0.32620000       0.85650000
    32  H          0.77490000       0.67380000       0.14350000
    33  C          0.33555000       0.46186000       0.76023000
    34  C          0.66445000       0.53814000       0.23977000
    35  H          0.43590000       0.41280000       0.75830000
    36  H          0.56410000       0.58720000       0.24170000
    37  C          0.31245000       0.58586000       0.70563000
    38  C          0.68755000       0.41414000       0.29437000
    39  C          0.16226000       0.65636000       0.70543000
    40  C          0.83774000       0.34364000       0.29457000
    41  H          0.14650000       0.73900000       0.66670000
    42  H          0.85350000       0.26100000       0.33330000
    43  C          0.03656000       0.60336000       0.76283000
    44  C          0.96344000       0.39664000       0.23717000
    45  H          0.93520000       0.65110000       0.76290000
    46  H          0.06480000       0.34890000       0.23710000
    47  Br         0.15874800       0.27859800       0.50571400
    48  Br         0.84125200       0.72140200       0.49428600
    49  C          0.75014000       0.09005000       0.70763000
    50  C          0.24986000       0.90995000       0.29237000
    51  C          0.70913000       0.18807000       0.63973000
    52  C          0.29087000       0.81193000       0.36027000
    53  H          0.59770000       0.21590000       0.63420000
    54  H          0.40230000       0.78410000       0.36580000
    55  C          0.82952000       0.24427000       0.58084000
    56  C          0.17048000       0.75573000       0.41916000
    57  H          0.80110000       0.31080000       0.53570000
    58  H          0.19890000       0.68920000       0.46430000
    59  C         -0.00757000       0.20156000       0.58863000
    60  C          0.00757000       0.79844000       0.41137000
    61  C          0.03826000       0.10516000       0.65433000
    62  C          0.96174000       0.89484000       0.34567000
    63  H          0.15000000       0.07760000       0.65900000
    64  H          0.85000000       0.92240000       0.34100000
    65  C          0.91474000       0.04866000       0.71403000
    66  C          0.08526000       0.95134000       0.28597000
    67  H          0.94400000      -0.01810000       0.75900000
    68  H          0.05600000       0.01810000       0.24100000
    69  C          0.61584000       0.03356000       0.77193000
    70  C          0.38416000       0.96644000       0.22807000
    71  O          0.47565000       0.07965000       0.77263000
    72  O          0.52435000       0.92035000       0.22737000
    73  O          0.66546000       0.92796000       0.82742000
    74  O          0.33454000       0.07204000       0.17258000
    75  H          0.58760000       0.90080000       0.86120000
    76  H          0.41240000       0.09920000       0.13880000
