data_YAZMUL
_symmetry_space_group_name_H-M    'P1'
_symmetry_Int_Tables_number       1
loop_
_symmetry_equiv_pos_site_id
_symmetry_equiv_pos_as_xyz
1 x,y,z
_cell_length_a                   18.62147
_cell_length_b                   10.41943
_cell_length_c                   10.71594
_cell_angle_alpha                90.0
_cell_angle_beta                 99.3412
_cell_angle_gamma                90.0
loop_
_atom_site_label
_atom_site_type_symbol
_atom_site_fract_x
_atom_site_fract_y
_atom_site_fract_z
     1  Br         0.60434200       0.81602200       0.86436200
     2  Br         0.39565800       0.81602200       0.63563800
     3  Br         0.10434200       0.31602200       0.86436200
     4  Br         0.89565800       0.31602200       0.63563800
     5  Br         0.39565800       0.18397800       0.13563800
     6  Br         0.60434200       0.18397800       0.36436200
     7  Br         0.89565800       0.68397800       0.13563800
     8  Br         0.10434200       0.68397800       0.36436200
     9  B          0.63926110       0.79087180       0.70254190
    10  B          0.36073890       0.79087180       0.79745810
    11  B          0.13926110       0.29087180       0.70254190
    12  B          0.86073890       0.29087180       0.79745810
    13  B          0.36073890       0.20912820       0.29745810
    14  B          0.63926110       0.20912820       0.20254190
    15  B          0.86073890       0.70912820       0.29745810
    16  B          0.13926110       0.70912820       0.20254190
    17  B          0.59499110       0.85632000       0.56376190
    18  B          0.40500890       0.85632000       0.93623810
    19  B          0.09499110       0.35632000       0.56376190
    20  B          0.90500890       0.35632000       0.93623810
    21  B          0.40500890       0.14368000       0.43623810
    22  B          0.59499110       0.14368000       0.06376190
    23  B          0.90500890       0.64368000       0.43623810
    24  B          0.09499110       0.64368000       0.06376190
    25  H          0.54771200       0.91420000       0.54820000
    26  H          0.45228800       0.91420000       0.95180000
    27  H          0.04771200       0.41420000       0.54820000
    28  H          0.95228800       0.41420000       0.95180000
    29  H          0.45228800       0.08580000       0.45180000
    30  H          0.54771200       0.08580000       0.04820000
    31  H          0.95228800       0.58580000       0.45180000
    32  H          0.04771200       0.58580000       0.04820000
    33  H          0.64401100       0.90291900       0.52011900
    34  H          0.35598900       0.90291900       0.97988100
    35  H          0.14401100       0.40291900       0.52011900
    36  H          0.85598900       0.40291900       0.97988100
    37  H          0.35598900       0.09708100       0.47988100
    38  H          0.64401100       0.09708100       0.02011900
    39  H          0.85598900       0.59708100       0.47988100
    40  H          0.14401100       0.59708100       0.02011900
    41  H          0.58781300       0.76020000       0.48820000
    42  H          0.41218700       0.76020000       0.01180000
    43  H          0.08781300       0.26020000       0.48820000
    44  H          0.91218700       0.26020000       0.01180000
    45  H          0.41218700       0.23980000       0.51180000
    46  H          0.58781300       0.23980000      -0.01180000
    47  H          0.91218700       0.73980000       0.51180000
    48  H          0.08781300       0.73980000      -0.01180000
    49  B          0.67847100       0.63988190       0.67446180
    50  B          0.32152900       0.63988190       0.82553820
    51  B          0.17847100       0.13988190       0.67446180
    52  B          0.82152900       0.13988190       0.82553820
    53  B          0.32152900       0.36011810       0.32553820
    54  B          0.67847100       0.36011810       0.17446180
    55  B          0.82152900       0.86011810       0.32553820
    56  B          0.17847100       0.86011810       0.17446180
    57  H          0.67561800       0.56246200       0.74599600
    58  H          0.32438200       0.56246200       0.75400400
    59  H          0.17561800       0.06246200       0.74599600
    60  H          0.82438200       0.06246200       0.75400400
    61  H          0.32438200       0.43753800       0.25400400
    62  H          0.67561800       0.43753800       0.24599600
    63  H          0.82438200       0.93753800       0.25400400
    64  H          0.17561800       0.93753800       0.24599600
    65  B          0.59642110       0.68409180       0.57972000
    66  B          0.40357890       0.68409180       0.92028000
    67  B          0.09642110       0.18409180       0.57972000
    68  B          0.90357890       0.18409180       0.92028000
    69  B          0.40357890       0.31590820       0.42028000
    70  B          0.59642110       0.31590820       0.07972000
    71  B          0.90357890       0.81590820       0.42028000
    72  B          0.09642110       0.81590820       0.07972000
    73  H          0.54801200       0.63361900       0.57820000
    74  H          0.45198800       0.63361900       0.92180000
    75  H          0.04801200       0.13361900       0.57820000
    76  H          0.95198800       0.13361900       0.92180000
    77  H          0.45198800       0.36638100       0.42180000
    78  H          0.54801200       0.36638100       0.07820000
    79  H          0.95198800       0.86638100       0.42180000
    80  H          0.04801200       0.86638100       0.07820000
    81  B          0.67478110       0.58852190       0.51743190
    82  B          0.32521890       0.58852190       0.98256810
    83  B          0.17478110       0.08852190       0.51743190
    84  B          0.82521890       0.08852190       0.98256810
    85  B          0.32521890       0.41147810       0.48256810
    86  B          0.67478110       0.41147810       0.01743190
    87  B          0.82521890       0.91147810       0.48256810
    88  B          0.17478110       0.91147810       0.01743190
    89  H          0.66371200       0.49420000       0.49220000
    90  H          0.33628800       0.49420000       0.00780000
    91  H          0.16371200      -0.00580000       0.49220000
    92  H          0.83628800      -0.00580000       0.00780000
    93  H          0.33628800       0.50580000       0.50780000
    94  H          0.66371200       0.50580000      -0.00780000
    95  H          0.83628800       0.00580000       0.50780000
    96  H          0.16371200       0.00580000      -0.00780000
    97  H          0.66851200       0.65320000       0.41720000
    98  H          0.33148800       0.65320000       0.08280000
    99  H          0.16851200       0.15320000       0.41720000
   100  H          0.83148800       0.15320000       0.08280000
   101  H          0.33148800       0.34680000       0.58280000
   102  H          0.66851200       0.34680000       0.91720000
   103  H          0.83148800       0.84680000       0.58280000
   104  H          0.16851200       0.84680000       0.91720000
   105  B          0.75802110       0.64886190       0.60634180
   106  B          0.24197890       0.64886190       0.89365820
   107  B          0.25802110       0.14886190       0.60634180
   108  B          0.74197890       0.14886190       0.89365820
   109  B          0.24197890       0.35113810       0.39365820
   110  B          0.75802110       0.35113810       0.10634180
   111  B          0.74197890       0.85113810       0.39365820
   112  B          0.25802110       0.85113810       0.10634180
   113  H          0.80635100       0.58645200       0.63933200
   114  H          0.19364900       0.58645200       0.86066800
   115  H          0.30635100       0.08645200       0.63933200
   116  H          0.69364900       0.08645200       0.86066800
   117  H          0.19364900       0.41354800       0.36066800
   118  H          0.80635100       0.41354800       0.13933200
   119  H          0.69364900       0.91354800       0.36066800
   120  H          0.30635100       0.91354800       0.13933200
   121  B          0.73731110       0.68624170       0.44398190
   122  B          0.26268890       0.68624170       0.05601810
   123  B          0.23731110       0.18624170       0.44398190
   124  B          0.76268890       0.18624170       0.05601810
   125  B          0.26268890       0.31375830       0.55601810
   126  B          0.73731110       0.31375830       0.94398190
   127  B          0.76268890       0.81375830       0.55601810
   128  B          0.23731110       0.81375830       0.94398190
   129  B          0.81479110       0.59240190       0.37656180
   130  B          0.18520890       0.59240190       0.12343820
   131  B          0.31479110       0.09240190       0.37656180
   132  B          0.68520890       0.09240190       0.12343820
   133  B          0.18520890       0.40759810       0.62343820
   134  B          0.81479110       0.40759810       0.87656180
   135  B          0.68520890       0.90759810       0.62343820
   136  B          0.31479110       0.90759810       0.87656180
   137  H          0.80191200       0.49320000       0.35120000
   138  H          0.19808800       0.49320000       0.14880000
   139  H          0.30191200      -0.00680000       0.35120000
   140  H          0.69808800      -0.00680000       0.14880000
   141  H          0.19808800       0.50680000       0.64880000
   142  H          0.80191200       0.50680000       0.85120000
   143  H          0.69808800       0.00680000       0.64880000
   144  H          0.30191200       0.00680000       0.85120000
   145  B          0.76472110       0.72060190       0.29827180
   146  B          0.23527890       0.72060190       0.20172820
   147  B          0.26472110       0.22060190       0.29827180
   148  B          0.73527890       0.22060190       0.20172820
   149  B          0.23527890       0.27939810       0.70172820
   150  B          0.76472110       0.27939810       0.79827180
   151  B          0.73527890       0.77939810       0.70172820
   152  B          0.26472110       0.77939810       0.79827180
   153  H          0.72608100       0.69711700       0.20983300
   154  H          0.27391900       0.69711700       0.29016700
   155  H          0.22608100       0.19711700       0.20983300
   156  H          0.77391900       0.19711700       0.29016700
   157  H          0.27391900       0.30288300       0.79016700
   158  H          0.72608100       0.30288300       0.70983300
   159  H          0.77391900       0.80288300       0.79016700
   160  H          0.22608100       0.80288300       0.70983300
   161  C          0.50000000       0.59633000       0.25000000
   162  C          0.00000000       0.09633000       0.25000000
   163  C          0.50000000       0.40367000       0.75000000
   164  C         -0.00000000       0.90367000       0.75000000
   165  H          0.50000000       0.50514600       0.25000100
   166  H          0.00000000       0.00514600       0.25000100
   167  H          0.50000000       0.49485400       0.74999900
   168  H         -0.00000000      -0.00514600       0.74999900
   169  C          0.44802110       0.66283180       0.30333190
   170  C          0.55197890       0.66283180       0.19666810
   171  C          0.94802110       0.16283180       0.30333190
   172  C          0.05197890       0.16283180       0.19666810
   173  C          0.55197890       0.33716820       0.69666810
   174  C          0.44802110       0.33716820       0.80333190
   175  C          0.05197890       0.83716820       0.69666810
   176  C          0.94802110       0.83716820       0.80333190
   177  H          0.41265200       0.61719100       0.34038900
   178  H          0.58734800       0.61719100       0.15961100
   179  H          0.91265200       0.11719100       0.34038900
   180  H          0.08734800       0.11719100       0.15961100
   181  H          0.58734800       0.38280900       0.65961100
   182  H          0.41265200       0.38280900       0.84038900
   183  H          0.08734800       0.88280900       0.65961100
   184  H          0.91265200       0.88280900       0.84038900
   185  C          0.44763110       0.79607180       0.30258180
   186  C          0.55236890       0.79607180       0.19741820
   187  C          0.94763110       0.29607180       0.30258180
   188  C          0.05236890       0.29607180       0.19741820
   189  C          0.55236890       0.20392820       0.69741820
   190  C          0.44763110       0.20392820       0.80258180
   191  C          0.05236890       0.70392820       0.69741820
   192  C          0.94763110       0.70392820       0.80258180
   193  H          0.41155900       0.84152300       0.33802000
   194  H          0.58844100       0.84152300       0.16198000
   195  H          0.91155900       0.34152300       0.33802000
   196  H          0.08844100       0.34152300       0.16198000
   197  H          0.58844100       0.15847700       0.66198000
   198  H          0.41155900       0.15847700       0.83802000
   199  H          0.08844100       0.65847700       0.66198000
   200  H          0.91155900       0.65847700       0.83802000
   201  C          0.50000000       0.86313000       0.25000000
   202  C          0.00000000       0.36313000       0.25000000
   203  C          0.50000000       0.13687000       0.75000000
   204  C         -0.00000000       0.63687000       0.75000000
   205  H          0.50000100       0.95422700       0.25000100
   206  H          0.00000100       0.45422700       0.25000100
   207  H          0.49999900       0.04577300       0.74999900
   208  H         -0.00000100       0.54577300       0.74999900
