data_YEBZEN
_symmetry_space_group_name_H-M    'P1'
_symmetry_Int_Tables_number       1
loop_
_symmetry_equiv_pos_site_id
_symmetry_equiv_pos_as_xyz
1 x,y,z
_cell_length_a                   8.9822
_cell_length_b                   8.9153
_cell_length_c                   9.0793
_cell_angle_alpha                111.632
_cell_angle_beta                 103.252
_cell_angle_gamma                95.543
loop_
_atom_site_label
_atom_site_type_symbol
_atom_site_fract_x
_atom_site_fract_y
_atom_site_fract_z
     1  Br         0.57974120       0.68887800       0.33189800
     2  Br         0.42025880       0.31112200       0.66810200
     3  H          0.38980000       0.69570000       0.29070000
     4  H          0.61020000       0.30430000       0.70930000
     5  O          0.17586000       0.71516000       0.15825000
     6  O          0.82414000       0.28484000       0.84175000
     7  N          0.19277000       0.74996000       0.02406000
     8  N          0.80723000       0.25004000       0.97594000
     9  C          0.15999000       0.62448000       0.87901000
    10  C          0.84001000       0.37552000       0.12099000
    11  H          0.13820000       0.51720000       0.87160000
    12  H          0.86180000       0.48280000       0.12840000
    13  C          0.15798000       0.65167000       0.74113000
    14  C          0.84202000       0.34833000       0.25887000
    15  H          0.13790000       0.56170000       0.64070000
    16  H          0.86210000       0.43830000       0.35930000
    17  C          0.18468000       0.80797000       0.74514000
    18  C          0.81532000       0.19203000       0.25486000
    19  C          0.26307000       0.10917000       0.92413000
    20  C          0.73693000       0.89083000       0.07587000
    21  H          0.25790000       0.13400000       0.83250000
    22  H          0.74210000       0.86600000       0.16750000
    23  C          0.30628000       0.23117000       0.07518000
    24  C          0.69372000       0.76883000       0.92482000
    25  H          0.33180000       0.33940000       0.08710000
    26  H          0.66820000       0.66060000       0.91290000
    27  C          0.31328000       0.19728000       0.21597000
    28  C          0.68672000       0.80272000       0.78403000
    29  H          0.34430000       0.28340000       0.32010000
    30  H          0.65570000       0.71660000       0.67990000
    31  C          0.27548000       0.04098000       0.20177000
    32  C          0.72452000       0.95902000       0.79823000
    33  H          0.27810000       0.01940000       0.29500000
    34  H          0.72190000      -0.01940000       0.70500000
    35  C          0.23237000       0.91307000       0.04566000
    36  C          0.76763000       0.08693000       0.95434000
    37  C          0.22487000       0.94206000       0.90124000
    38  C          0.77513000       0.05794000       0.09876000
    39  C          0.17291000       0.83368000       0.59024000
    40  C          0.82709000       0.16632000       0.40976000
    41  H          0.07240000       0.85690000       0.55310000
    42  H          0.92760000       0.14310000       0.44690000
    43  H          0.18590000       0.73580000       0.50670000
    44  H          0.81410000       0.26420000       0.49330000
    45  H          0.25300000       0.92450000       0.61120000
    46  H          0.74700000       0.07550000       0.38880000
