data_YECHAQ
_symmetry_space_group_name_H-M    'P1'
_symmetry_Int_Tables_number       1
loop_
_symmetry_equiv_pos_site_id
_symmetry_equiv_pos_as_xyz
1 x,y,z
_cell_length_a                   22.2718
_cell_length_b                   6.6112
_cell_length_c                   10.5534
_cell_angle_alpha                90.0
_cell_angle_beta                 100.2256
_cell_angle_gamma                90.0
loop_
_atom_site_label
_atom_site_type_symbol
_atom_site_fract_x
_atom_site_fract_y
_atom_site_fract_z
     1  N          0.37852800       0.28193000       0.33060170
     2  N          0.87852800       0.78193000       0.33060170
     3  N          0.62147200       0.28193000       0.16939830
     4  N          0.12147200       0.78193000       0.16939830
     5  N          0.62147200       0.71807000       0.66939830
     6  N          0.12147200       0.21807000       0.66939830
     7  N          0.37852800       0.71807000       0.83060170
     8  N          0.87852800       0.21807000       0.83060170
     9  N          0.48102100       0.07463000       0.68885190
    10  N          0.98102100       0.57463000       0.68885190
    11  N          0.51897900       0.07463000       0.81114810
    12  N          0.01897900       0.57463000       0.81114810
    13  N          0.51897900       0.92537000       0.31114810
    14  N          0.01897900       0.42537000       0.31114810
    15  N          0.48102100       0.92537000       0.18885190
    16  N          0.98102100       0.42537000       0.18885190
    17  O          0.50000000       0.39073000       0.75000000
    18  O          0.00000000       0.89073000       0.75000000
    19  O          0.50000000       0.60927000       0.25000000
    20  O          0.00000000       0.10927000       0.25000000
    21  C          0.41427900       0.21863000       0.43802000
    22  C          0.91427900       0.71863000       0.43802000
    23  C          0.58572100       0.21863000       0.06198000
    24  C          0.08572100       0.71863000       0.06198000
    25  C          0.58572100       0.78137000       0.56198000
    26  C          0.08572100       0.28137000       0.56198000
    27  C          0.41427900       0.78137000       0.93802000
    28  C          0.91427900       0.28137000       0.93802000
    29  H          0.42630000       0.08370000       0.44370000
    30  H          0.92630000       0.58370000       0.44370000
    31  H          0.57370000       0.08370000       0.05630000
    32  H          0.07370000       0.58370000       0.05630000
    33  H          0.57370000       0.91630000       0.55630000
    34  H          0.07370000       0.41630000       0.55630000
    35  H          0.42630000       0.91630000       0.94370000
    36  H          0.92630000       0.41630000       0.94370000
    37  C          0.43443900       0.34533000       0.54211190
    38  C          0.93443900       0.84533000       0.54211190
    39  C          0.56556100       0.34533000       0.95788810
    40  C          0.06556100       0.84533000       0.95788810
    41  C          0.56556100       0.65467000       0.45788810
    42  C          0.06556100       0.15467000       0.45788810
    43  C          0.43443900       0.65467000       0.04211190
    44  C          0.93443900       0.15467000       0.04211190
    45  C          0.41727100       0.54683000       0.53262000
    46  C          0.91727100       0.04683000       0.53262000
    47  C          0.58272900       0.54683000       0.96738000
    48  C          0.08272900       0.04683000       0.96738000
    49  C          0.58272900       0.45317000       0.46738000
    50  C          0.08272900       0.95317000       0.46738000
    51  C          0.41727100       0.45317000       0.03262000
    52  C          0.91727100       0.95317000       0.03262000
    53  H          0.43090000       0.63670000       0.59930000
    54  H          0.93090000       0.13670000       0.59930000
    55  H          0.56910000       0.63670000       0.90070000
    56  H          0.06910000       0.13670000       0.90070000
    57  H          0.56910000       0.36330000       0.40070000
    58  H          0.06910000       0.86330000       0.40070000
    59  H          0.43090000       0.36330000       0.09930000
    60  H          0.93090000       0.86330000       0.09930000
    61  C          0.37942100       0.61153000       0.42182000
    62  C          0.87942100       0.11153000       0.42182000
    63  C          0.62057900       0.61153000       0.07818000
    64  C          0.12057900       0.11153000       0.07818000
    65  C          0.62057900       0.38847000       0.57818000
    66  C          0.12057900       0.88847000       0.57818000
    67  C          0.37942100       0.38847000       0.92182000
    68  C          0.87942100       0.88847000       0.92182000
    69  H          0.36640000       0.74530000       0.41330000
    70  H          0.86640000       0.24530000       0.41330000
    71  H          0.63360000       0.74530000       0.08670000
    72  H          0.13360000       0.24530000       0.08670000
    73  H          0.63360000       0.25470000       0.58670000
    74  H          0.13360000       0.75470000       0.58670000
    75  H          0.36640000       0.25470000       0.91330000
    76  H          0.86640000       0.75470000       0.91330000
    77  C          0.36137100       0.47504000       0.32462000
    78  C          0.86137100       0.97504000       0.32462000
    79  C          0.63862900       0.47504000       0.17538000
    80  C          0.13862900       0.97504000       0.17538000
    81  C          0.63862900       0.52496000       0.67538000
    82  C          0.13862900       0.02496000       0.67538000
    83  C          0.36137100       0.52496000       0.82462000
    84  C          0.86137100       0.02496000       0.82462000
    85  H          0.33580000       0.51980000       0.25050000
    86  H          0.83580000       0.01980000       0.25050000
    87  H          0.66420000       0.51980000       0.24950000
    88  H          0.16420000       0.01980000       0.24950000
    89  H          0.66420000       0.48020000       0.74950000
    90  H          0.16420000      -0.01980000       0.74950000
    91  H          0.33580000       0.48020000       0.75050000
    92  H          0.83580000      -0.01980000       0.75050000
    93  C          0.47142900       0.26123000       0.65772000
    94  C          0.97142900       0.76123000       0.65772000
    95  C          0.52857100       0.26123000       0.84228000
    96  C          0.02857100       0.76123000       0.84228000
    97  C          0.52857100       0.73877000       0.34228000
    98  C          0.02857100       0.23877000       0.34228000
    99  C          0.47142900       0.73877000       0.15772000
   100  C          0.97142900       0.23877000       0.15772000
   101  O          0.71663800       0.86942000       0.26909140
   102  O          0.21663800       0.36942000       0.26909140
   103  O          0.28336200       0.86942000       0.23090860
   104  O          0.78336200       0.36942000       0.23090860
   105  O          0.28336200       0.13058000       0.73090860
   106  O          0.78336200       0.63058000       0.73090860
   107  O          0.71663800       0.13058000       0.76909140
   108  O          0.21663800       0.63058000       0.76909140
   109  O          0.67203900       0.08183000       0.38634150
   110  O          0.17203900       0.58183000       0.38634150
   111  O          0.32796100       0.08183000       0.11365850
   112  O          0.82796100       0.58183000       0.11365850
   113  O          0.32796100       0.91817000       0.61365850
   114  O          0.82796100       0.41817000       0.61365850
   115  O          0.67203900       0.91817000       0.88634150
   116  O          0.17203900       0.41817000       0.88634150
   117  H          0.66050000       0.13660000       0.31660000
   118  H          0.16050000       0.63660000       0.31660000
   119  H          0.33950000       0.13660000       0.18340000
   120  H          0.83950000       0.63660000       0.18340000
   121  H          0.33950000       0.86340000       0.68340000
   122  H          0.83950000       0.36340000       0.68340000
   123  H          0.66050000       0.86340000       0.81660000
   124  H          0.16050000       0.36340000       0.81660000
   125  C          0.70787900       0.92883000       0.37159190
   126  C          0.20787900       0.42883000       0.37159190
   127  C          0.29212100       0.92883000       0.12840810
   128  C          0.79212100       0.42883000       0.12840810
   129  C          0.29212100       0.07117000       0.62840810
   130  C          0.79212100       0.57117000       0.62840810
   131  C          0.70787900       0.07117000       0.87159190
   132  C          0.20787900       0.57117000       0.87159190
   133  C          0.73520900       0.83593000       0.49697190
   134  C          0.23520900       0.33593000       0.49697190
   135  C          0.26479100       0.83593000       0.00302810
   136  C          0.76479100       0.33593000       0.00302810
   137  C          0.26479100       0.16407000       0.50302810
   138  C          0.76479100       0.66407000       0.50302810
   139  C          0.73520900       0.16407000      -0.00302810
   140  C          0.23520900       0.66407000      -0.00302810
   141  H          0.73120000       0.90160000       0.57300000
   142  H          0.23120000       0.40160000       0.57300000
   143  H          0.26880000       0.90160000       0.92700000
   144  H          0.76880000       0.40160000       0.92700000
   145  H          0.26880000       0.09840000       0.42700000
   146  H          0.76880000       0.59840000       0.42700000
   147  H          0.73120000       0.09840000       0.07300000
   148  H          0.23120000       0.59840000       0.07300000
