data_YEKJEF
_symmetry_space_group_name_H-M    'P1'
_symmetry_Int_Tables_number       1
loop_
_symmetry_equiv_pos_site_id
_symmetry_equiv_pos_as_xyz
1 x,y,z
_cell_length_a                   6.74587
_cell_length_b                   4.92434
_cell_length_c                   9.49759
_cell_angle_alpha                90.0
_cell_angle_beta                 101.4531
_cell_angle_gamma                90.0
loop_
_atom_site_label
_atom_site_type_symbol
_atom_site_fract_x
_atom_site_fract_y
_atom_site_fract_z
     1  O          0.12062000       0.52495000       0.80064850
     2  O          0.87938000       0.02495000       0.19935150
     3  N          0.24603000       0.75915000       0.01372000
     4  N          0.75397000       0.25915000      -0.01372000
     5  N          0.33024000       0.67265000       0.14993000
     6  N          0.66976000       0.17265000       0.85007000
     7  N          0.33574000       0.40975000       0.15543000
     8  N          0.66426000       0.90975000       0.84457000
     9  N          0.25579110       0.32262000       0.02152800
    10  N          0.74420890       0.82262000       0.97847200
    11  H          0.24130000       0.16490000       0.00600000
    12  H          0.75870000       0.66490000      -0.00600000
    13  C          0.20017110       0.53612000       0.93333200
    14  C          0.79982890       0.03612000       0.06666800
    15  O          0.15804110      -0.02442000       0.58189800
    16  O          0.84195890       0.47558000       0.41810200
    17  H          0.19980000       0.15060000       0.55470000
    18  H          0.80020000       0.65060000       0.44530000
    19  N          0.01046110       0.02832000       0.66617800
    20  N         -0.01046110       0.52832000       0.33382200
    21  H          0.03200000       0.86770000       0.74050000
    22  H          0.96800000       0.36770000       0.25950000
    23  H          0.04640000       0.21410000       0.71450000
    24  H          0.95360000       0.71410000       0.28550000
    25  H          0.88350000       0.02570000       0.60470000
    26  H          0.11650000       0.52570000       0.39530000
    27  O          0.66414110       0.88498000       0.48570800
    28  O          0.33585890       0.38498000       0.51429200
    29  N          0.55501110       0.04252000       0.37076800
    30  N          0.44498890       0.54252000       0.62923200
    31  H          0.46430000       0.91240000       0.30200000
    32  H          0.53570000       0.41240000       0.69800000
    33  H          0.66310000       0.13550000       0.33630000
    34  H          0.33690000       0.63550000       0.66370000
    35  H          0.48170000       0.18780000       0.41540000
    36  H          0.51830000       0.68780000       0.58460000
