data_YELZIB
_symmetry_space_group_name_H-M    'P1'
_symmetry_Int_Tables_number       1
loop_
_symmetry_equiv_pos_site_id
_symmetry_equiv_pos_as_xyz
1 x,y,z
_cell_length_a                   13.052301
_cell_length_b                   17.254901
_cell_length_c                   13.98532
_cell_angle_alpha                90.0
_cell_angle_beta                 118.13001
_cell_angle_gamma                90.0
loop_
_atom_site_label
_atom_site_type_symbol
_atom_site_fract_x
_atom_site_fract_y
_atom_site_fract_z
     1  O          0.45793140       0.37875120       0.89105140
     2  O          0.54206860       0.87875120       0.10894860
     3  C          0.57712000       0.48942000       0.92542000
     4  C          0.42288000       0.98942000       0.07458000
     5  H          0.52568000       0.50077000       0.84868700
     6  H          0.47432000       0.00077000       0.15131300
     7  H          0.65786500       0.48825500       0.93878200
     8  H          0.34213500       0.98825500       0.06121800
     9  H          0.56821600       0.52961100       0.97037100
    10  H          0.43178400       0.02961100       0.02962900
    11  C          0.54584190       0.41224170       0.95322000
    12  C          0.45415810       0.91224170       0.04678000
    13  C          0.62722000       0.37822000       0.06032000
    14  C          0.37278000       0.87822000       0.93968000
    15  H          0.58771600       0.33682600       0.07833500
    16  H          0.41228400       0.83682600       0.92166500
    17  H          0.65258400       0.41851300       0.11616000
    18  H          0.34741600       0.91851300       0.88384000
    19  H          0.69499200       0.35668400       0.05699600
    20  H          0.30500800       0.85668400       0.94300400
    21  O          0.74298140       0.37846120       0.49650140
    22  O          0.25701860       0.87846120       0.50349860
    23  C          0.61493000       0.42292000       0.32122000
    24  C          0.38507000       0.92292000       0.67878000
    25  H          0.67866600       0.40954900       0.30591600
    26  H          0.32133400       0.90954900       0.69408400
    27  H          0.59813400       0.47845100       0.30887600
    28  H          0.40186600       0.97845100       0.69112400
    29  H          0.54547000       0.39321700       0.27319100
    30  H          0.45453000       0.89321700       0.72680900
    31  C          0.64882000       0.40394140       0.43616190
    32  C          0.35118000       0.90394140       0.56383810
    33  C          0.56092000       0.41952000       0.47343000
    34  C          0.43908000       0.91952000       0.52657000
    35  H          0.58450200       0.39363200       0.54305200
    36  H          0.41549800       0.89363200       0.45694800
    37  H          0.48518000       0.39951200       0.41960500
    38  H          0.51482000       0.89951200       0.58039500
    39  H          0.55535200       0.47542100       0.48189700
    40  H          0.44464800       0.97542100       0.51810300
    41  O          0.47852000       0.21542000       0.06362000
    42  O          0.52148000       0.71542000       0.93638000
    43  C          0.32913000       0.20762000       0.88277000
    44  C          0.67087000       0.70762000       0.11723000
    45  H          0.38654000       0.17853600       0.87079800
    46  H          0.61346000       0.67853600       0.12920200
    47  H          0.30543800       0.25385800       0.83664900
    48  H          0.69456200       0.75385800       0.16335100
    49  H          0.26101300       0.17483400       0.86454800
    50  H          0.73898700       0.67483400       0.13545200
    51  C          0.38073000       0.23112000      -0.00222000
    52  C          0.61927000       0.73112000       0.00222000
    53  C          0.30784000       0.27754000       0.03134000
    54  C          0.69216000       0.77754000       0.96866000
    55  H          0.24941100       0.24404000       0.03541200
    56  H          0.75058900       0.74404000       0.96458800
    57  H          0.26895200       0.31876500       0.97816600
    58  H          0.73104800       0.81876500       0.02183400
    59  H          0.35690400       0.30060700       0.10261100
    60  H          0.64309600       0.80060700       0.89738900
    61  O          0.38344120       0.38668900       0.66359130
    62  O          0.61655880       0.88668900       0.33640870
    63  H          0.39592200       0.38420400       0.72817800
    64  H          0.60407800       0.88420400       0.27182200
    65  H          0.31194100       0.37833400       0.62589800
    66  H          0.68805900       0.87833400       0.37410200
    67  O         -0.00013110       0.26383800       0.33264100
    68  O          0.00013110       0.76383800       0.66735900
    69  H         -0.00230700       0.23050600       0.26429500
    70  H          0.00230700       0.73050600       0.73570500
    71  O          0.86068860       0.55281800       0.14552110
    72  O          0.13931140       0.05281800       0.85447890
    73  H          0.85492400       0.55447700       0.08314500
    74  H          0.14507600       0.05447700       0.91685500
    75  O          0.92653880       0.38332800       0.87796900
    76  O          0.07346120       0.88332800       0.12203100
    77  O         -0.01001130       0.21415800       0.16599110
    78  O          0.01001130       0.71415800       0.83400890
    79  O          0.84981870       0.56041800       0.95643890
    80  O          0.15018130       0.06041800       0.04356110
    81  O          0.96408880       0.50630900       0.82893900
    82  O          0.03591120       0.00630900       0.17106100
    83  O          0.15522110       0.34608900       0.52120110
    84  O          0.84477890       0.84608900       0.47879890
    85  O          0.41954120       0.54307900       0.64145120
    86  O          0.58045880       0.04307900       0.35854880
    87  H          0.39480400       0.49882700       0.64517800
    88  H          0.60519600      -0.00117300       0.35482200
    89  O          0.48780110       0.60848900       0.50494110
    90  O          0.51219890       0.10848900       0.49505890
    91  H          0.49268400       0.57283700       0.54780800
    92  H          0.50731600       0.07283700       0.45219200
    93  O          0.30116120       0.66306900       0.23587110
    94  O          0.69883880       0.16306900       0.76412890
    95  O          0.34185120       0.48721110       0.13198110
    96  O          0.65814880       0.98721110       0.86801890
    97  O          0.47602130       0.64381110       0.24419130
    98  O          0.52397870       0.14381110       0.75580870
    99  N          0.96583870       0.38184100       0.44925120
   100  N          0.03416130       0.88184100       0.55074880
   101  H          0.91174200       0.39870400       0.46698700
   102  H          0.08825800       0.89870400       0.53301300
   103  N          0.86618870       0.52236100       0.42874130
   104  N          0.13381130       0.02236100       0.57125870
   105  N          0.81040860       0.57673100       0.46033130
   106  N          0.18959140       0.07673100       0.53966870
   107  N          0.77242860       0.71109100       0.55832130
   108  N          0.22757140       0.21109100       0.44167870
   109  H          0.84684200       0.73599400       0.57742800
   110  H          0.15315800       0.23599400       0.42257200
   111  C          0.96674850       0.33442110       0.28642140
   112  C          0.03325150       0.83442110       0.71357860
   113  C          0.94658850       0.39398120       0.34153140
   114  C          0.05341150       0.89398120       0.65846860
   115  C          0.90606840       0.46702120       0.29130150
   116  C          0.09393160       0.96702120       0.70869850
   117  C          0.89542840       0.48040120       0.18815150
   118  C          0.10457160       0.98040120       0.81184850
   119  C          0.90670840       0.42960120       0.02404150
   120  C          0.09329160       0.92960120       0.97595850
   121  C          0.93303840       0.36593120       0.97642860
   122  C          0.06696160       0.86593120       0.02357140
   123  C          0.96240830       0.29273120       0.01894150
   124  C          0.03759170       0.79273120       0.98105850
   125  C          0.96814840       0.28204120       0.12181150
   126  C          0.03185160       0.78204120       0.87818850
   127  C          0.95009850       0.34700110       0.17948140
   128  C          0.04990150       0.84700110       0.82051860
   129  C          0.91689840       0.42093120       0.13081150
   130  C          0.08310160       0.92093120       0.86918850
   131  C          0.87927840       0.49246130       0.95196850
   132  C          0.12072160      -0.00753870       0.04803150
   133  C          0.88707820       0.46285120       0.85175850
   134  C          0.11292180       0.96285120       0.14824150
   135  C          0.77097810       0.46297150       0.75072840
   136  C          0.22902190       0.96297150       0.24927160
   137  H          0.73944800       0.51572100       0.73627000
   138  H          0.26055200       0.01572100       0.26373000
   139  H          0.71729100       0.42855100       0.76108600
   140  H          0.28270900       0.92855100       0.23891400
   141  H          0.78074400       0.44470400       0.68916000
   142  H          0.21925600       0.94470400       0.31084000
   143  C         -0.01552000       0.22634130       0.96134840
   144  C          0.01552000       0.72634130       0.03865160
   145  H          0.91418800       0.19456400       0.92519800
   146  H          0.08581200       0.69456400       0.07480200
   147  H          0.04842200       0.19457100       0.01406300
   148  H          0.95157800       0.69457100       0.98593700
   149  H          0.00517800       0.24662200       0.90726700
   150  H         -0.00517800       0.74662200       0.09273300
   151  C          0.06958150       0.36453110       0.53227140
   152  C          0.93041850       0.86453110       0.46772860
   153  C          0.07687150       0.37069120       0.64282140
   154  C          0.92312850       0.87069120       0.35717860
   155  C          0.13513160       0.43046130       0.70606150
   156  C          0.86486840       0.93046130       0.29393850
   157  H          0.14166400       0.43253000       0.77660400
   158  H          0.85833600       0.93253000       0.22339600
   159  C          0.18920160       0.49244130       0.67544150
   160  C          0.81079840      -0.00755870       0.32455850
   161  H          0.17658000       0.49307100       0.60276600
   162  H          0.82342000      -0.00692900       0.39723400
   163  C          0.25492170       0.54832130       0.74107160
   164  C          0.74507830       0.04832130       0.25892840
   165  H          0.26996300       0.54538600       0.81437900
   166  H          0.73003700       0.04538600       0.18562100
   167  C          0.30839170       0.61604130       0.71203160
   168  C          0.69160830       0.11604130       0.28796840
   169  H          0.38571400       0.62696000       0.77573500
   170  H          0.61428600       0.12696000       0.22426500
   171  C          0.32833170       0.59903120       0.61384160
   172  C          0.67166830       0.09903120       0.38615840
   173  H          0.25504700       0.57693500       0.55455400
   174  H          0.74495300       0.07693500       0.44544600
   175  C          0.36194170       0.67031130       0.56930160
   176  C          0.63805830       0.17031130       0.43069840
   177  H          0.29562400       0.70765700       0.54342300
   178  H          0.70437600       0.20765700       0.45657700
   179  C          0.38071160       0.64969120       0.47099160
   180  C          0.61928840       0.14969120       0.52900840
   181  H          0.38780600       0.69969000       0.43843400
   182  H          0.61219400       0.19969000       0.56156600
   183  C          0.27926160       0.60438120       0.38087150
   184  C          0.72073840       0.10438120       0.61912850
   185  H          0.27430700       0.55317600       0.41194700
   186  H          0.72569300       0.05317600       0.58805300
   187  C          0.30351160       0.58815120       0.28510150
   188  C          0.69648840       0.08815120       0.71489850
   189  H          0.38276100       0.56502000       0.31331900
   190  H          0.61723900       0.06502000       0.68668100
   191  C          0.21464150       0.53504120       0.19680150
   192  C          0.78535850       0.03504120       0.80319850
   193  H          0.13596500       0.55844600       0.17147200
   194  H          0.86403500       0.05844600       0.82852800
   195  C          0.23675160       0.52925130       0.09833150
   196  C          0.76324840       0.02925130       0.90166850
   197  H          0.24767700       0.58274200       0.07713600
   198  H          0.75232300       0.08274200       0.92286400
   199  C          0.13663160       0.49181130       0.00283150
   200  C          0.86336840       0.99181130      -0.00283150
   201  H          0.12357600       0.43778600       0.00458800
   202  H          0.87642400       0.93778600      -0.00458800
   203  C          0.06630160       0.53262130       0.91630860
   204  C          0.93369840       0.03262130       0.08369140
   205  H          0.08761300       0.58489900       0.91356800
   206  H          0.91238700       0.08489900       0.08643200
   207  C          0.01570180       0.30976130       0.67322170
   208  C         -0.01570180       0.80976130       0.32677830
   209  H          0.02601400       0.32039300       0.74607100
   210  H          0.97398600       0.82039300       0.25392900
   211  H          0.04836000       0.25878400       0.67236900
   212  H          0.95164000       0.75878400       0.32763100
   213  H          0.93269100       0.31024200       0.62111700
   214  H          0.06730900       0.81024200       0.37888300
   215  C          0.23072000       0.68672140       0.69462000
   216  C          0.76928000       0.18672140       0.30538000
   217  H          0.15849900       0.68084700       0.62644700
   218  H          0.84150100       0.18084700       0.37355300
   219  H          0.27129000       0.73362700       0.69143600
   220  H          0.72871000       0.23362700       0.30856400
   221  H          0.21254000       0.69093000       0.75492100
   222  H          0.78746000       0.19093000       0.24507900
   223  C          0.46915190       0.71145140       0.65686180
   224  C          0.53084810       0.21145140       0.34313820
   225  H          0.45256300       0.72963700       0.71452200
   226  H          0.54743700       0.22963700       0.28547800
   227  H          0.48877200       0.75578800       0.62479000
   228  H          0.51122800       0.25578800       0.37521000
   229  H          0.53471300       0.67523700       0.68728300
   230  H          0.46528700       0.17523700       0.31271700
   231  C          0.16224180       0.64558150       0.34348170
   232  C          0.83775820       0.14558150       0.65651830
   233  H          0.14554400       0.64997500       0.40463300
   234  H          0.85445600       0.14997500       0.59536700
   235  H          0.10062100       0.61560400       0.28522300
   236  H          0.89937900       0.11560400       0.71477700
   237  H          0.16589300       0.69746300       0.31673200
   238  H          0.83410700       0.19746300       0.68326800
   239  C          0.21401190       0.45489130       0.24380170
   240  C          0.78598810       0.95489130       0.75619830
   241  H          0.29365200       0.43503200       0.28247900
   242  H          0.70634800       0.93503200       0.71752100
   243  H          0.16631700       0.41933600       0.18478900
   244  H          0.83368300       0.91933600       0.81521100
   245  H          0.18164800       0.45905000       0.29417000
   246  H          0.81835200       0.95905000       0.70583000
   247  C          0.39150190       0.68318150       0.21955170
   248  C          0.60849810       0.18318150       0.78044830
   249  C          0.37203000       0.76065190       0.16703000
   250  C          0.62797000       0.26065190       0.83297000
   251  H          0.41471100       0.80003300       0.22203300
   252  H          0.58528900       0.30003300       0.77796700
   253  H          0.28884300       0.77282500       0.13150200
   254  H          0.71115700       0.27282500       0.86849800
   255  H          0.39958300       0.76011000       0.11284400
   256  H          0.60041700       0.26011000       0.88715600
   257  C          0.38892000       0.49743000       0.05992000
   258  C          0.61108000      -0.00257000       0.94008000
   259  H          0.33663700       0.47419100      -0.01046500
   260  H          0.66336300       0.97419100       0.01046500
   261  H          0.46506300       0.47215800       0.08980900
   262  H          0.53493700       0.97215800       0.91019100
   263  H          0.39756200       0.55285700       0.05039700
   264  H          0.60243800       0.05285700       0.94960300
   265  C          0.86625830       0.52920130       0.33710150
   266  C          0.13374170       0.02920130       0.66289850
   267  H          0.83952800       0.57625700       0.29777900
   268  H          0.16047200       0.07625700       0.70222100
   269  C          0.76978820       0.64841120       0.39906150
   270  C          0.23021180       0.14841120       0.60093850
   271  H          0.72078200       0.63634700       0.32126200
   272  H          0.27921800       0.13634700       0.67873800
   273  H          0.83715300       0.67926400       0.40659800
   274  H          0.16284700       0.17926400       0.59340200
   275  C          0.70019830       0.69497120       0.44005160
   276  C          0.29980170       0.19497120       0.55994840
   277  H          0.67523200       0.74444600       0.39969800
   278  H          0.32476800       0.24444600       0.60030200
   279  H          0.62981200       0.66568500       0.42776200
   280  H          0.37018800       0.16568500       0.57223800
   281  C          0.80517830       0.63519120       0.61684150
   282  C          0.19482170       0.13519120       0.38315850
   283  H          0.73414200       0.60628300       0.60350700
   284  H          0.26585800       0.10628300       0.39649300
   285  H          0.85120300       0.64433400       0.69582200
   286  H          0.14879700       0.14433400       0.30417800
   287  C          0.87571830       0.58809130       0.57766150
   288  C          0.12428170       0.08809130       0.42233850
   289  H          0.94948600       0.61527800       0.59600900
   290  H          0.05051400       0.11527800       0.40399100
   291  H          0.89477200       0.53711400       0.61450900
   292  H          0.10522800       0.03711400       0.38549100
   293  C          0.70994810       0.76206140       0.59953190
   294  C          0.29005190       0.26206140       0.40046810
   295  H          0.69135100       0.81144200       0.56029400
   296  H          0.30864900       0.31144200       0.43970600
   297  H          0.75937300       0.77162700       0.67709600
   298  H          0.24062700       0.27162700       0.32290400
   299  H          0.63795800       0.73668200       0.58832800
   300  H          0.36204200       0.23668200       0.41167200
