data_YEPJEL
_symmetry_space_group_name_H-M    'P1'
_symmetry_Int_Tables_number       1
loop_
_symmetry_equiv_pos_site_id
_symmetry_equiv_pos_as_xyz
1 x,y,z
_cell_length_a                   8.45714
_cell_length_b                   5.4259
_cell_length_c                   16.023
_cell_angle_alpha                90.0
_cell_angle_beta                 97.542
_cell_angle_gamma                90.0
loop_
_atom_site_label
_atom_site_type_symbol
_atom_site_fract_x
_atom_site_fract_y
_atom_site_fract_z
     1  C          0.31634000       0.95249000       0.56042000
     2  C          0.68366000       0.45249000       0.43958000
     3  C          0.22013000       0.82786000       0.42374170
     4  C          0.77987000       0.32786000       0.57625830
     5  C          0.12114000       0.62537000       0.42117190
     6  C          0.87886000       0.12537000       0.57882810
     7  H          0.05930000       0.59760000       0.46420000
     8  H          0.94070000       0.09760000       0.53580000
     9  C          0.11464000       0.46516000       0.35462180
    10  C          0.88536000       0.96516000       0.64537820
    11  H          0.04840000       0.32770000       0.35230000
    12  H          0.95160000       0.82770000       0.64770000
    13  C          0.20773000       0.50875000       0.29046160
    14  C          0.79227000       0.00875000       0.70953840
    15  C          0.30423000       0.71736000       0.29531160
    16  C          0.69577000       0.21736000       0.70468840
    17  C          0.31153000       0.88296000       0.36138170
    18  C          0.68847000       0.38296000       0.63861830
    19  H          0.37470000       0.02360000       0.36350000
    20  H          0.62530000       0.52360000       0.63650000
    21  C          0.31413000       0.44685000       0.17422160
    22  C          0.68587000       0.94685000       0.82577840
    23  F          0.46622000       0.92476000       0.54795150
    24  F          0.53378000       0.42476000       0.45204850
    25  F          0.27894000       0.74937000       0.59851160
    26  F          0.72106000       0.24937000       0.40148840
    27  F          0.30884000       0.13526000       0.61251170
    28  F          0.69116000       0.63526000       0.38748830
    29  N          0.21473000       0.35885000       0.22127140
    30  N          0.78527000       0.85885000       0.77872860
    31  N          0.34714000       0.34856000       0.10180170
    32  N          0.65286000       0.84856000       0.89819830
    33  O          0.22003000      -0.00205000       0.49100130
    34  O          0.77997000       0.49795000       0.50899870
    35  S          0.40719800       0.72637150       0.20838400
    36  S          0.59280200       0.22637150       0.79161600
    37  H          0.30640000       0.20290000       0.08820000
    38  H          0.69360000       0.70290000       0.91180000
    39  H          0.42750000       0.40380000       0.07920000
    40  H          0.57250000       0.90380000       0.92080000
    41  C          0.74933000       0.36425000       0.04653160
    42  C          0.25067000       0.86425000       0.95346840
    43  H          0.80160000       0.79810000       0.04930000
    44  H          0.19840000       0.29810000       0.95070000
    45  H          0.91140000       0.02470000       0.04020000
    46  H          0.08860000       0.52470000       0.95980000
    47  C          0.73593000       0.12335000       0.09410160
    48  C          0.26407000       0.62335000       0.90589840
    49  H          0.62960000       0.05270000       0.07820000
    50  H          0.37040000       0.55270000       0.92180000
    51  C          0.76574000       0.15546000       0.18952170
    52  C          0.23426000       0.65546000       0.81047830
    53  H          0.83160000       0.29900000       0.20480000
    54  H          0.16840000       0.79900000       0.79520000
    55  H          0.66600000       0.17270000       0.21280000
    56  H          0.33400000       0.67270000       0.78720000
    57  C          0.85154000       0.92084000       0.22053180
    58  C          0.14846000       0.42084000       0.77946820
    59  H          0.91280000       0.94470000       0.27550000
    60  H          0.08720000       0.44470000       0.72450000
    61  H          0.77680000       0.78650000       0.22370000
    62  H          0.22320000       0.28650000       0.77630000
    63  C          0.95833000       0.87234000       0.15486180
    64  C          0.04167000       0.37234000       0.84513820
    65  H          0.05400000       0.97240000       0.16450000
    66  H          0.94600000       0.47240000       0.83550000
    67  H         -0.01150000       0.70000000       0.15440000
    68  H          0.01150000       0.20000000       0.84560000
    69  N          0.85953000       0.94216000       0.07463140
    70  N          0.14047000       0.44216000       0.92536860
    71  O          0.64283000       0.51924000       0.05210140
    72  O          0.35717000       0.01924000       0.94789860
    73  O          0.86683000       0.39494000       0.00907160
    74  O          0.13317000       0.89494000       0.99092840
