data_YEPNAM
_symmetry_space_group_name_H-M    'P1'
_symmetry_Int_Tables_number       1
loop_
_symmetry_equiv_pos_site_id
_symmetry_equiv_pos_as_xyz
1 x,y,z
_cell_length_a                   6.38404
_cell_length_b                   8.96456
_cell_length_c                   10.52767
_cell_angle_alpha                92.00701
_cell_angle_beta                 103.48601
_cell_angle_gamma                95.25401
loop_
_atom_site_label
_atom_site_type_symbol
_atom_site_fract_x
_atom_site_fract_y
_atom_site_fract_z
     1  I          0.66942200       0.22256200       0.52953200
     2  I          0.33057800       0.77743800       0.47046800
     3  I          0.26129200       0.27742200       0.88578200
     4  I          0.73870800       0.72257800       0.11421800
     5  C          0.54244000       0.19513000       0.70333000
     6  C          0.45756000       0.80487000       0.29667000
     7  H          0.49030000       0.08828100       0.70738800
     8  H          0.50970000       0.91171900       0.29261200
     9  H          0.65959900       0.22407400       0.78240900
    10  H          0.34040100       0.77592600       0.21759100
    11  C          0.35994000       0.28983000       0.70113000
    12  C          0.64006000       0.71017000       0.29887000
    13  H          0.23579100       0.25365000       0.62764700
    14  H          0.76420900       0.74635000       0.37235300
    15  H          0.40701000       0.39521000       0.68779000
    16  H          0.59299000       0.60479000       0.31221000
    17  N          0.88103000       0.24742000       0.31142000
    18  N          0.11897000       0.75258000       0.68858000
    19  N          0.09493000       0.25962000       0.13212000
    20  N          0.90507000       0.74038000       0.86788000
    21  C          0.00834000       0.11843000       0.31453000
    22  C         -0.00834000       0.88157000       0.68547000
    23  H          0.91040400       0.02410700       0.30284500
    24  H          0.08959600       0.97589300       0.69715500
    25  H          0.11208300       0.11948000       0.40073600
    26  H          0.88791700       0.88052000       0.59926400
    27  C          0.13344000       0.12373000       0.20513000
    28  C          0.86656000       0.87627000       0.79487000
    29  H          0.29024100       0.12353400       0.24415400
    30  H          0.70975900       0.87646600       0.75584600
    31  H          0.08513500       0.03351400       0.14466400
    32  H          0.91486500       0.96648600       0.85533600
    33  C          0.73284000       0.24603000       0.18103000
    34  C          0.26716000       0.75397000       0.81897000
    35  H          0.64510300       0.33199900       0.17742200
    36  H          0.35489700       0.66800100       0.82257800
    37  H          0.63290200       0.15253300       0.16514900
    38  H          0.36709800       0.84746700       0.83485100
    39  C          0.86114000       0.25603000       0.07393000
    40  C          0.13886000       0.74397000       0.92607000
    41  H          0.81323600       0.16834800       0.01056000
    42  H          0.18676400       0.83165200      -0.01056000
    43  H          0.83191900       0.34790800       0.02602900
    44  H          0.16808100       0.65209200       0.97397100
    45  C          0.03114000       0.38573000       0.33063000
    46  C          0.96886000       0.61427000       0.66937000
    47  H          0.13115600       0.38932200       0.41827900
    48  H          0.86884400       0.61067800       0.58172100
    49  H          0.94795000       0.47408300       0.32633000
    50  H          0.05205000       0.52591700       0.67367000
    51  C          0.16274000       0.39163000       0.22483000
    52  C          0.83726000       0.60837000       0.77517000
    53  H          0.14003400       0.48421600       0.17715700
    54  H          0.85996600       0.51578400       0.82284300
    55  H          0.31886400       0.39392500       0.26683700
    56  H          0.68113600       0.60607500       0.73316300
