data_YEVNEV
_symmetry_space_group_name_H-M    'P1'
_symmetry_Int_Tables_number       1
loop_
_symmetry_equiv_pos_site_id
_symmetry_equiv_pos_as_xyz
1 x,y,z
_cell_length_a                   8.05977
_cell_length_b                   9.60519
_cell_length_c                   14.240213
_cell_angle_alpha                96.8172
_cell_angle_beta                 99.4122
_cell_angle_gamma                103.6722
loop_
_atom_site_label
_atom_site_type_symbol
_atom_site_fract_x
_atom_site_fract_y
_atom_site_fract_z
     1  O          0.47748120       0.33754110       0.14622600
     2  O          0.52251880       0.66245890       0.85377400
     3  O          0.71683130       0.43837100       0.46936600
     4  O          0.28316870       0.56162900       0.53063400
     5  N          0.59578140       0.38436110       0.30846700
     6  N          0.40421860       0.61563890       0.69153300
     7  N          0.62279140       0.18131110       0.20562700
     8  N          0.37720860       0.81868890       0.79437300
     9  N          0.83515140       0.15618110       0.43597700
    10  N          0.16484860       0.84381890       0.56402300
    11  H          0.87300000       0.18170000       0.49720000
    12  H          0.12700000       0.81830000       0.50280000
    13  C          0.74731160       0.22763130       0.37482900
    14  C          0.25268840       0.77236870       0.62517100
    15  C          0.69090160       0.35612130       0.39190900
    16  C          0.30909840       0.64387870       0.60809100
    17  C          0.56016160       0.30306140       0.21522900
    18  C          0.43983840       0.69693860       0.78477100
    19  C          0.52558180       0.51247140       0.31952100
    20  C          0.47441820       0.48752860       0.68047900
    21  H          0.48110000       0.51780000       0.37800000
    22  H          0.51890000       0.48220000       0.62200000
    23  H          0.43330000       0.50440000       0.26550000
    24  H          0.56670000       0.49560000       0.73450000
    25  H          0.61660000       0.59870000       0.32220000
    26  H          0.38340000       0.40130000       0.67780000
    27  C          0.59374180       0.09629150       0.10936900
    28  C          0.40625820       0.90370850       0.89063100
    29  H          0.66440000       0.15040000       0.07100000
    30  H          0.33560000       0.84960000       0.92900000
    31  H          0.47310000       0.07610000       0.07920000
    32  H          0.52690000       0.92390000       0.92080000
    33  H          0.62470000       0.00660000       0.11470000
    34  H          0.37530000      -0.00660000       0.88530000
    35  C          0.71363160       0.14445130       0.28527900
    36  C          0.28636840       0.85554870       0.71472100
    37  C          0.84928170       0.03809130       0.37994900
    38  C          0.15071830       0.96190870       0.62005100
    39  H          0.90450000       0.97120000       0.40380000
    40  H          0.09550000       0.02880000       0.59620000
    41  N          0.77691140       0.02568110       0.28709800
    42  N          0.22308860       0.97431890       0.71290200
    43  O          0.00030120       0.25107100       0.62960600
    44  O         -0.00030120       0.74892900       0.37039400
    45  N          0.92345840       0.46354120       0.65412800
    46  N          0.07654160       0.53645880       0.34587200
    47  H          0.87700000       0.43910000       0.60250000
    48  H          0.12300000       0.56090000       0.39750000
    49  N          0.07779140       0.51575110       0.84055800
    50  N          0.92220860       0.48424890       0.15944200
    51  C          0.24423180       0.45270140       0.97727900
    52  C          0.75576820       0.54729860       0.02272100
    53  H          0.29640000       0.47590000       0.04240000
    54  H          0.70360000       0.52410000       0.95760000
    55  C          0.25447170       0.32787140       0.92187900
    56  C          0.74552830       0.67212860       0.07812100
    57  H          0.31400000       0.26580000       0.94910000
    58  H          0.68600000       0.73420000       0.05090000
    59  C          0.17448170       0.29644140       0.82483900
    60  C          0.82551830       0.70355860       0.17516100
    61  H          0.17820000       0.21280000       0.78590000
    62  H          0.82180000       0.78720000       0.21410000
    63  C          0.08893160       0.39355130       0.78770900
    64  C          0.91106840       0.60644870       0.21229100
    65  C         -0.00018160       0.36368130       0.68308900
    66  C          0.00018160       0.63631870       0.31691100
    67  C          0.15452170       0.54295140       0.93383900
    68  C          0.84547830       0.45704860       0.06616100
    69  H          0.14750000       0.62650000       0.97160000
    70  H          0.85250000       0.37350000       0.02840000
    71  H          0.92680000       0.54151900       0.69531200
    72  H          0.07320000       0.45848100       0.30468800
    73  O          0.16866120       0.88684900       0.07623600
    74  O          0.83133880       0.11315100       0.92376400
    75  O          0.44283120       0.85860900       0.37903600
    76  O          0.55716880       0.14139100       0.62096400
    77  N          0.16549140       0.06187110       0.19782700
    78  N          0.83450860       0.93812890       0.80217300
    79  N          0.30870140       0.87780890       0.22785700
    80  N          0.69129860       0.12219110       0.77214300
    81  C          0.20986160       0.93935870       0.16184900
    82  C          0.79013840       0.06064130       0.83815100
    83  C          0.21992160       0.11902130       0.29435900
    84  C          0.78007840       0.88097870       0.70564100
    85  N          0.19212140       0.24186110       0.33951700
    86  N          0.80787860       0.75813890       0.66048300
    87  C          0.26977170       0.25028130       0.43093900
    88  C          0.73022830       0.74971870       0.56906100
    89  H          0.27280000       0.32480000       0.47980000
    90  H          0.72720000       0.67520000       0.52020000
    91  C          0.36165160       0.92538870       0.32775900
    92  C          0.63834840       0.07461130       0.67224100
    93  C          0.36236180       0.75174860       0.18709900
    94  C          0.63763820       0.24825140       0.81290100
    95  H          0.27600000       0.66430000       0.18830000
    96  H          0.72400000       0.33570000       0.81170000
    97  H          0.47200000       0.75000000       0.22460000
    98  H          0.52800000       0.25000000       0.77540000
    99  H          0.37420000       0.75850000       0.12170000
   100  H          0.62580000       0.24150000       0.87830000
   101  C          0.31266160       0.05363130       0.35697800
   102  C          0.68733840       0.94636870       0.64302200
   103  N          0.34337140       0.14074110       0.44581700
   104  N          0.65662860       0.85925890       0.55418300
   105  H          0.39840000       0.12760000       0.49970000
   106  H          0.60160000       0.87240000       0.50030000
   107  C          0.06615180       0.13158150       0.13100900
   108  C          0.93384820       0.86841850       0.86899100
   109  H          0.02180000       0.20060000       0.16700000
   110  H         -0.02180000       0.79940000       0.83300000
   111  H          0.97080000       0.05910000       0.08980000
   112  H          0.02920000       0.94090000       0.91020000
   113  H          0.14080000       0.18070000       0.09240000
   114  H          0.85920000       0.81930000       0.90760000
