data_YEWPAR
_symmetry_space_group_name_H-M    'P1'
_symmetry_Int_Tables_number       1
loop_
_symmetry_equiv_pos_site_id
_symmetry_equiv_pos_as_xyz
1 x,y,z
_cell_length_a                   13.8102
_cell_length_b                   9.8294
_cell_length_c                   16.1986
_cell_angle_alpha                90.0
_cell_angle_beta                 113.412
_cell_angle_gamma                90.0
loop_
_atom_site_label
_atom_site_type_symbol
_atom_site_fract_x
_atom_site_fract_y
_atom_site_fract_z
     1  I          0.04426500       0.65512000       0.17970400
     2  I          0.95573500       0.15512000       0.32029600
     3  I          0.95573500       0.34488000       0.82029600
     4  I          0.04426500       0.84488000       0.67970400
     5  I          0.91251500       0.67772000      -0.00086400
     6  I          0.08748500       0.17772000       0.50086400
     7  I          0.08748500       0.32228000       0.00086400
     8  I          0.91251500       0.82228000       0.49913600
     9  I          0.43966500       0.11742000       0.61123400
    10  I          0.56033500       0.61742000       0.88876600
    11  I          0.56033500       0.88258000       0.38876600
    12  I          0.43966500       0.38258000       0.11123400
    13  I          0.56122500       0.35132000       0.64897500
    14  I          0.43877500       0.85132000       0.85102500
    15  I          0.43877500       0.64868000       0.35102500
    16  I          0.56122500       0.14868000       0.14897500
    17  I          0.26727500       0.34462000       0.71855400
    18  I          0.73272500       0.84462000       0.78144600
    19  I          0.73272500       0.65538000       0.28144600
    20  I          0.26727500       0.15538000       0.21855400
    21  I          0.28307600       0.18332000       0.86215400
    22  I          0.71692400       0.68332000       0.63784600
    23  I          0.71692400       0.81668000       0.13784600
    24  I          0.28307600       0.31668000       0.36215400
    25  S          0.17702000       0.66416000       0.36891000
    26  S          0.82298000       0.16416000       0.13109000
    27  S          0.82298000       0.33584000       0.63109000
    28  S          0.17702000       0.83584000       0.86891000
    29  S          0.30042000       0.88797000       0.55972000
    30  S          0.69958000       0.38797000       0.94028000
    31  S          0.69958000       0.11203000       0.44028000
    32  S          0.30042000       0.61203000       0.05972000
    33  S          0.26892000       0.50357000       0.56581000
    34  S          0.73108000       0.00357000       0.93419000
    35  S          0.73108000       0.49643000       0.43419000
    36  S          0.26892000      -0.00357000       0.06581000
    37  C          0.15808000       0.84320000       0.38056000
    38  C          0.84192000       0.34320000       0.11944000
    39  C          0.84192000       0.15680000       0.61944000
    40  C          0.15808000       0.65680000       0.88056000
    41  C          0.26048000       0.91820000       0.43966000
    42  C          0.73952000       0.41820000       0.06034000
    43  C          0.73952000       0.08180000       0.56034000
    44  C          0.26048000       0.58180000       0.93966000
    45  C          0.38887000       0.74120000       0.58716000
    46  C          0.61113000       0.24120000       0.91284000
    47  C          0.61113000       0.25880000       0.41284000
    48  C          0.38887000       0.75880000       0.08716000
    49  C          0.35667000       0.63120000       0.63626000
    50  C          0.64333000       0.13120000       0.86374000
    51  C          0.64333000       0.36880000       0.36374000
    52  C          0.35667000       0.86880000       0.13626000
    53  C          0.14137000       0.58520000       0.51985000
    54  C          0.85863000       0.08520000       0.98015000
    55  C          0.85863000       0.41480000       0.48015000
    56  C          0.14137000       0.91480000       0.01985000
    57  C          0.09396000       0.58320000       0.41725000
    58  C          0.90604000       0.08320000       0.08275000
    59  C          0.90604000       0.41680000       0.58275000
    60  C          0.09396000       0.91680000       0.91725000
    61  H          0.10810000       0.85330000       0.40680000
    62  H          0.89190000       0.35330000       0.09320000
    63  H          0.89190000       0.14670000       0.59320000
    64  H          0.10810000       0.64670000       0.90680000
    65  H          0.13110000       0.88270000       0.32230000
    66  H          0.86890000       0.38270000       0.17770000
    67  H          0.86890000       0.11730000       0.67770000
    68  H          0.13110000       0.61730000       0.82230000
    69  H          0.24970000       0.01260000       0.42860000
    70  H          0.75030000       0.51260000       0.07140000
    71  H          0.75030000      -0.01260000       0.57140000
    72  H          0.24970000       0.48740000       0.92860000
    73  H          0.31560000       0.88780000       0.42290000
    74  H          0.68440000       0.38780000       0.07710000
    75  H          0.68440000       0.11220000       0.57710000
    76  H          0.31560000       0.61220000       0.92290000
    77  H          0.45800000       0.77110000       0.62410000
    78  H          0.54200000       0.27110000       0.87590000
    79  H          0.54200000       0.22890000       0.37590000
    80  H          0.45800000       0.72890000       0.12410000
    81  H          0.38860000       0.70470000       0.53270000
    82  H          0.61140000       0.20470000       0.96730000
    83  H          0.61140000       0.29530000       0.46730000
    84  H          0.38860000       0.79530000       0.03270000
    85  H          0.32270000       0.67270000       0.67030000
    86  H          0.67730000       0.17270000       0.82970000
    87  H          0.67730000       0.32730000       0.32970000
    88  H          0.32270000       0.82730000       0.17030000
    89  H          0.41880000       0.58610000       0.67550000
    90  H          0.58120000       0.08610000       0.82450000
    91  H          0.58120000       0.41390000       0.32450000
    92  H          0.41880000       0.91390000       0.17550000
    93  H          0.09500000       0.53880000       0.54080000
    94  H          0.90500000       0.03880000       0.95920000
    95  H          0.90500000       0.46120000       0.45920000
    96  H          0.09500000       0.96120000       0.04080000
    97  H          0.14880000       0.67690000       0.53950000
    98  H          0.85120000       0.17690000       0.96050000
    99  H          0.85120000       0.32310000       0.46050000
   100  H          0.14880000       0.82310000       0.03950000
   101  H          0.02780000       0.62820000       0.39620000
   102  H          0.97220000       0.12820000       0.10380000
   103  H          0.97220000       0.37180000       0.60380000
   104  H          0.02780000       0.87180000       0.89620000
   105  H          0.08340000       0.49040000       0.39780000
   106  H          0.91660000      -0.00960000       0.10220000
   107  H          0.91660000       0.50960000       0.60220000
   108  H          0.08340000       0.00960000       0.89780000
