data_YEZHIY
_symmetry_space_group_name_H-M    'P1'
_symmetry_Int_Tables_number       1
loop_
_symmetry_equiv_pos_site_id
_symmetry_equiv_pos_as_xyz
1 x,y,z
_cell_length_a                   5.63
_cell_length_b                   9.63
_cell_length_c                   28.23
_cell_angle_alpha                90.0
_cell_angle_beta                 90.309
_cell_angle_gamma                90.0
loop_
_atom_site_label
_atom_site_type_symbol
_atom_site_fract_x
_atom_site_fract_y
_atom_site_fract_z
     1  C          0.95440000       0.55721900       0.79447000
     2  C          0.04560000       0.05721900       0.20553000
     3  C          0.79940000       0.66881800       0.78826000
     4  C          0.20060000       0.16881800       0.21174000
     5  C          0.65540000       0.71211800       0.82557000
     6  C          0.34460000       0.21211800       0.17443000
     7  C          0.66640000       0.64420000       0.86896000
     8  C          0.33360000       0.14420000       0.13104000
     9  C          0.82140000       0.53220000       0.87516000
    10  C          0.17860000       0.03220000       0.12484000
    11  H          0.82768000       0.48630300       0.90416200
    12  H          0.17232000      -0.01369700       0.09583800
    13  C          0.96540000       0.48881800       0.83797000
    14  C          0.03460000      -0.01118200       0.16203000
    15  H          0.06819100       0.41406700       0.84200200
    16  H          0.93180900       0.91406700       0.15799800
    17  C          0.79650000       0.75320000       0.74179000
    18  C          0.20350000       0.25320000       0.25821000
    19  H          0.95760400       0.78674700       0.73672800
    20  H          0.04239600       0.28674700       0.26327200
    21  H          0.76259600       0.68791600       0.71619200
    22  H          0.23740400       0.18791600       0.28380800
    23  C          0.62860000       0.87830000       0.73451100
    24  C          0.37140000       0.37830000       0.26548900
    25  H          0.53081700       0.86207700       0.70631800
    26  H          0.46918300       0.36207700       0.29368200
    27  H          0.72268500       0.96059300       0.72917200
    28  H          0.27731500       0.46059300       0.27082800
    29  C          0.46250000       0.90230000       0.77731000
    30  C          0.53750000       0.40230000       0.22269000
    31  N          0.49650000       0.83220000       0.82121100
    32  N          0.50350000       0.33220000       0.17878900
    33  H          0.40878200       0.86672100       0.85018600
    34  H          0.59121800       0.36672100       0.14981400
    35  C          0.30830000       0.33721900       0.70571200
    36  C          0.69170000       0.83721900       0.29428800
    37  C          0.23060000       0.40930000       0.75561500
    38  C          0.76940000       0.90930000       0.24438500
    39  H          0.14163300       0.33978100       0.77337500
    40  H          0.85836700       0.83978100       0.22662500
    41  H          0.37554100       0.42755700       0.77330900
    42  H          0.62445900       0.92755700       0.22669100
    43  O          0.31560000       0.00720000       0.77711000
    44  O          0.68440000       0.50720000       0.22289000
    45  F          0.51160000       0.68820000       0.90491100
    46  F          0.48840000       0.18820000       0.09508900
    47  O          0.11250000       0.51530000       0.75601300
    48  O          0.88750000       0.01530000       0.24398700
    49  C          0.12040000       0.24530000       0.62751000
    50  C          0.87960000       0.74530000       0.37249000
    51  H          0.18919000       0.15261200       0.62616100
    52  H          0.81081000       0.65261200       0.37383900
    53  H          0.96635100       0.24188900       0.61150200
    54  H          0.03364900       0.74188900       0.38849800
    55  O         -0.02150000       0.17830000       0.70821300
    56  O          0.02150000       0.67830000       0.29178700
    57  H          0.83340100       0.18966800       0.70954400
    58  H          0.16659900       0.68966800       0.29045600
    59  C          0.44040000       0.45120000       0.67781100
    60  C          0.55960000       0.95120000       0.32218900
    61  H          0.34792800       0.53676800       0.67900300
    62  H          0.65207200       0.03676800       0.32099700
    63  H          0.59376800       0.46906900       0.69279700
    64  H          0.40623200       0.96906900       0.30720300
    65  O          0.46430000       0.22020000       0.71441400
    66  O          0.53570000       0.72020000       0.28558600
    67  H          0.38977700       0.15920900       0.72834400
    68  H          0.61022300       0.65920900       0.27165600
    69  C          0.08240000       0.28520000       0.67981000
    70  C          0.91760000       0.78520000       0.32019000
    71  H          0.96857700       0.36294400       0.67982400
    72  H          0.03142300       0.86294400       0.32017600
    73  C          0.27150000       0.34330000       0.54961000
    74  C          0.72850000       0.84330000       0.45039000
    75  C          0.44850000       0.26630000       0.52721100
    76  C          0.55150000       0.76630000       0.47278900
    77  C          0.46250000       0.26530000       0.47791100
    78  C          0.53750000       0.76530000       0.52208900
    79  H          0.57991800       0.21350800       0.46295500
    80  H          0.42008200       0.71350800       0.53704500
    81  C          0.29850000       0.34140000       0.45111000
    82  C          0.70150000       0.84140000       0.54889000
    83  C          0.12250000       0.41840000       0.47351100
    84  C          0.87750000       0.91840000       0.52648900
    85  H          0.01230400       0.46865300       0.45548700
    86  H         -0.01230400       0.96865300       0.54451300
    87  C          0.10840000       0.41930000       0.52271100
    88  C          0.89160000       0.91930000       0.47728900
    89  Cl         0.28360000       0.31540000       0.38961000
    90  Cl         0.71640000       0.81540000       0.61039000
    91  F          0.93280000       0.49150000       0.55420000
    92  F          0.06720000      -0.00850000       0.44580000
    93  F          0.61170000       0.18950000       0.55020000
    94  F          0.38830000       0.68950000       0.44980000
    95  C          0.47940000       0.41030000       0.62571100
    96  C          0.52060000       0.91030000       0.37428900
    97  H          0.51865800       0.49309100       0.60782700
    98  H          0.48134200      -0.00690900       0.39217300
    99  H          0.61612000       0.34837600       0.62421000
   100  H          0.38388000       0.84837600       0.37579000
   101  N          0.27640000       0.34230000       0.60241100
   102  N          0.72360000       0.84230000       0.39758900
   103  C          0.78530000       0.05941500       0.91646000
   104  C          0.21470000       0.55941500       0.08354000
   105  C          0.60830000       0.15381700       0.90405000
   106  C          0.39170000       0.65381700       0.09595000
   107  H          0.60070000       0.18945500       0.87336600
   108  H          0.39930000       0.68945500       0.12663400
   109  C          0.44030000       0.19491700       0.93757000
   110  C          0.55970000       0.69491700       0.06243000
   111  C          0.45030000       0.14161900       0.98336000
   112  C          0.54970000       0.64161900       0.01664000
   113  H          0.33815500       0.16910400       0.00572700
   114  H          0.66184500       0.66910400       0.99427300
   115  C          0.62830000       0.04720000      -0.00424000
   116  C          0.37170000       0.54720000       0.00424000
   117  H          0.63490900       0.01156300       0.02639100
   118  H          0.36509100       0.51156300       0.97360900
   119  C          0.79630000       0.00611600       0.96237000
   120  C          0.20370000       0.50611600       0.03763000
   121  O          0.13940000       0.91870000       0.89219000
   122  O          0.86060000       0.41870000       0.10781000
   123  C         -0.02460000      -0.00230000       0.88289000
   124  C          0.02460000       0.49770000       0.11711000
   125  O          0.26850000       0.29430000       0.91931200
   126  O          0.73150000       0.79430000       0.08068800
   127  H          0.16876600       0.31051000       0.93982200
   128  H          0.83123400       0.81051000       0.06017800
   129  O          0.96130000       0.90180000       0.97889000
   130  O          0.03870000       0.40180000       0.02111000
   131  H          0.05416500       0.88270700       0.95746700
   132  H          0.94583500       0.38270700       0.04253300
   133  O          0.96050000       0.06830000       0.83841100
   134  O          0.03950000       0.56830000       0.16158900
   135  H          0.06316400       0.03776000       0.82049300
   136  H          0.93683600       0.53776000       0.17950700
