data_YIBQEJ
_symmetry_space_group_name_H-M    'P1'
_symmetry_Int_Tables_number       1
loop_
_symmetry_equiv_pos_site_id
_symmetry_equiv_pos_as_xyz
1 x,y,z
_cell_length_a                   7.59007
_cell_length_b                   15.0492
_cell_length_c                   11.211818
_cell_angle_alpha                90.0
_cell_angle_beta                 102.2981
_cell_angle_gamma                90.0
loop_
_atom_site_label
_atom_site_type_symbol
_atom_site_fract_x
_atom_site_fract_y
_atom_site_fract_z
     1  C          0.91067000       0.16576140       0.44062000
     2  C          0.08933000       0.66576140       0.05938000
     3  C          0.08933000       0.83423860       0.55938000
     4  C          0.91067000       0.33423860       0.94062000
     5  C          0.00893000       0.18458140       0.56978190
     6  C         -0.00893000       0.68458140       0.93021810
     7  C         -0.00893000       0.81541860       0.43021810
     8  C          0.00893000       0.31541860       0.06978190
     9  C          0.07513000       0.11127140       0.64047190
    10  C          0.92487000       0.61127140       0.85952810
    11  C          0.92487000       0.88872860       0.35952810
    12  C          0.07513000       0.38872860       0.14047190
    13  C          0.20623000       0.20383150       0.80312000
    14  C          0.79377000       0.70383150       0.69688000
    15  C          0.79377000       0.79616850       0.19688000
    16  C          0.20623000       0.29616850       0.30312000
    17  C          0.14833000       0.27799150       0.73562000
    18  C          0.85167000       0.77799150       0.76438000
    19  C          0.85167000       0.72200850       0.26438000
    20  C          0.14833000       0.22200850       0.23562000
    21  C          0.04543000       0.26863150       0.61812000
    22  C          0.95457000       0.76863150       0.88188000
    23  C          0.95457000       0.73136850       0.38188000
    24  C          0.04543000       0.23136850       0.11812000
    25  C          0.23153000       0.04277150       0.83181190
    26  C          0.76847000       0.54277150       0.66818810
    27  C          0.76847000       0.95722850       0.16818810
    28  C          0.23153000       0.45722850       0.33181190
    29  C          0.10953000       0.02297130       0.91866170
    30  C          0.89047000       0.52297130       0.58133830
    31  C          0.89047000       0.97702870       0.08133830
    32  C          0.10953000       0.47702870       0.41866170
    33  C          0.18533000      -0.00270150       0.03806190
    34  C          0.81467000       0.49729850       0.46193810
    35  C          0.81467000       0.00270150       0.96193810
    36  C          0.18533000       0.50270150       0.53806190
    37  C          0.92267000       0.02544160       0.88205190
    38  C          0.07733000       0.52544160       0.61794810
    39  C          0.07733000       0.97455840       0.11794810
    40  C          0.92267000       0.47455840       0.38205190
    41  O          0.94427000       0.09773120       0.39035140
    42  O          0.05573000       0.59773120       0.10964860
    43  O          0.05573000       0.90226880       0.60964860
    44  O          0.94427000       0.40226880       0.89035140
    45  N          0.79727000       0.22843140       0.38667180
    46  N          0.20273000       0.72843140       0.11332820
    47  N          0.20273000       0.77156860       0.61332820
    48  N          0.79727000       0.27156860       0.88667180
    49  N          0.16822000       0.12201120       0.75493150
    50  N          0.83178000       0.62201120       0.74506850
    51  N          0.83178000       0.87798880       0.24506850
    52  N          0.16822000       0.37798880       0.25493150
    53  H          0.23110000      -0.00750000       0.77820000
    54  H          0.76890000       0.49250000       0.72180000
    55  H          0.76890000       0.00750000       0.22180000
    56  H          0.23110000       0.50750000       0.27820000
    57  H          0.27180000       0.20700000       0.88310000
    58  H          0.72820000       0.70700000       0.61690000
    59  H          0.72820000       0.79300000       0.11690000
    60  H          0.27180000       0.29300000       0.38310000
    61  H          0.05650000       0.05400000       0.61100000
    62  H          0.94350000       0.55400000       0.88900000
    63  H          0.94350000       0.94600000       0.38900000
    64  H          0.05650000       0.44600000       0.11100000
    65  H          0.17800000       0.33360000       0.76720000
    66  H          0.82200000       0.83360000       0.73280000
    67  H          0.82200000       0.66640000       0.23280000
    68  H          0.17800000       0.16640000       0.26720000
    69  H          0.00150000       0.31930000       0.57460000
    70  H         -0.00150000       0.81930000       0.92540000
    71  H         -0.00150000       0.68070000       0.42540000
    72  H          0.00150000       0.18070000       0.07460000
    73  H          0.75560000       0.26911600       0.42711800
    74  H          0.24440000       0.76911600       0.07288200
    75  H          0.24440000       0.73088400       0.57288200
    76  H          0.75560000       0.23088400       0.92711800
    77  H          0.73760000       0.21881600       0.31621800
    78  H          0.26240000       0.71881600       0.18378200
    79  H          0.26240000       0.78118400       0.68378200
    80  H          0.73760000       0.28118400       0.81621800
    81  H          0.86790000       0.04420000       0.80400000
    82  H          0.13210000       0.54420000       0.69600000
    83  H          0.13210000       0.95580000       0.19600000
    84  H          0.86790000       0.45580000       0.30400000
    85  H          0.35410000       0.05400000       0.87830000
    86  H          0.64590000       0.55400000       0.62170000
    87  H          0.64590000       0.94600000       0.12170000
    88  H          0.35410000       0.44600000       0.37830000
    89  H          0.31350000      -0.00450000       0.06350000
    90  H          0.68650000       0.49550000       0.43650000
    91  H          0.68650000       0.00450000       0.93650000
    92  H          0.31350000       0.50450000       0.56350000
    93  C          0.52017000       0.43790160       0.09342000
    94  C          0.47983000       0.93790160       0.40658000
    95  C          0.47983000       0.56209840       0.90658000
    96  C          0.52017000       0.06209840       0.59342000
    97  C          0.53027000       0.52687170       0.12072000
    98  C          0.46973000       0.02687170       0.37928000
    99  C          0.46973000       0.47312830       0.87928000
   100  C          0.53027000       0.97312830       0.62072000
   101  C          0.48957000       0.41058160       0.97288000
   102  C          0.51043000       0.91058160       0.52712000
   103  C          0.51043000       0.58941840       0.02712000
   104  C          0.48957000       0.08941840       0.47288000
   105  O          0.54197000       0.37862120       0.18950160
   106  O          0.45803000       0.87862120       0.31049840
   107  O          0.45803000       0.62137880       0.81049840
   108  O          0.54197000       0.12137880       0.68950160
   109  H          0.53950000       0.32831500       0.16340000
   110  H          0.46050000       0.82831500       0.33660000
   111  H          0.46050000       0.67168500       0.83660000
   112  H          0.53950000       0.17168500       0.66340000
   113  H          0.55110000       0.54670000       0.20260000
   114  H          0.44890000       0.04670000       0.29740000
   115  H          0.44890000       0.45330000       0.79740000
   116  H          0.55110000       0.95330000       0.70260000
   117  H          0.48360000       0.34940000       0.95680000
   118  H          0.51640000       0.84940000       0.54320000
   119  H          0.51640000       0.65060000       0.04320000
   120  H          0.48360000       0.15060000       0.45680000
   121  Br         0.55595700       0.17463916       0.09329200
   122  Br         0.44404300       0.67463916       0.40670800
   123  Br         0.44404300       0.82536084       0.90670800
   124  Br         0.55595700       0.32536084       0.59329200
