data_YICKON
_symmetry_space_group_name_H-M    'P1'
_symmetry_Int_Tables_number       1
loop_
_symmetry_equiv_pos_site_id
_symmetry_equiv_pos_as_xyz
1 x,y,z
_cell_length_a                   10.91752
_cell_length_b                   11.12622
_cell_length_c                   11.67162
_cell_angle_alpha                92.50401
_cell_angle_beta                 96.84001
_cell_angle_gamma                91.78901
loop_
_atom_site_label
_atom_site_type_symbol
_atom_site_fract_x
_atom_site_fract_y
_atom_site_fract_z
     1  Br         0.27472300       0.54366300       0.40312200
     2  Br         0.72527700       0.45633700       0.59687800
     3  Br         0.67338300       0.25768300       0.30622300
     4  Br         0.32661700       0.74231700       0.69377700
     5  O          0.20242000       0.50122000       0.14681160
     6  O          0.79758000       0.49878000       0.85318840
     7  H          0.18226700       0.48757400       0.07740800
     8  H          0.81773300       0.51242600       0.92259200
     9  O          0.54902000       0.27172000       0.06285170
    10  O          0.45098000       0.72828000       0.93714830
    11  H          0.50719600       0.26187400      -0.00026400
    12  H          0.49280400       0.73812600       0.00026400
    13  C          0.37513000       0.38743000       0.10132000
    14  C          0.62487000       0.61257000       0.89868000
    15  H          0.34516200       0.38406100       0.02314500
    16  H          0.65483800       0.61593900       0.97685500
    17  C          0.48413000       0.33143000       0.13672000
    18  C          0.51587000       0.66857000       0.86328000
    19  C          0.35763000       0.45562000       0.29482000
    20  C          0.64237000       0.54438000       0.70518000
    21  C          0.30923000       0.44853000       0.17912000
    22  C          0.69077000       0.55147000       0.82088000
    23  C          0.46573000       0.40062000       0.33182000
    24  C          0.53427000       0.59938000       0.66818000
    25  H          0.49662200       0.40562800       0.40966000
    26  H          0.50337800       0.59437200       0.59034000
    27  C          0.52793000       0.33832000       0.25412000
    28  C          0.47207000       0.66168000       0.74588000
    29  N          0.43072000       0.23453000       0.84812000
    30  N          0.56928000       0.76547000       0.15188000
    31  C          0.37023000       0.16883000       0.61202000
    32  C          0.62977000       0.83117000       0.38798000
    33  C          0.30753000      -0.00613000       0.31493000
    34  C          0.69247000       0.00613000       0.68507000
    35  C          0.41573000       0.31543000       0.76793000
    36  C          0.58427000       0.68457000       0.23207000
    37  H          0.42599000       0.39625200       0.79188400
    38  H          0.57401000       0.60374800       0.20811600
    39  C          0.34143000       0.13773000       0.48753000
    40  C          0.65857000       0.86227000       0.51247000
    41  H          0.32938700       0.20159600       0.43915400
    42  H          0.67061300       0.79840400       0.56084600
    43  C          0.38533000       0.08363000       0.69563000
    44  C          0.61467000       0.91637000       0.30437000
    45  H          0.37531000       0.00209000       0.67388300
    46  H          0.62469000      -0.00209000       0.32611700
    47  C          0.33083000       0.02913000       0.43783000
    48  C          0.66917000       0.97087000       0.56217000
    49  H          0.33931300       0.96601700       0.48751000
    50  H          0.66068700       0.03398300       0.51249000
    51  C          0.30953000       0.07583000       0.22853000
    52  C          0.69047000       0.92417000       0.77147000
    53  H          0.32292600       0.15734800       0.24858600
    54  H          0.67707400       0.84265200       0.75141400
    55  C          0.41483000       0.11903000       0.81023000
    56  C          0.58517000       0.88097000       0.18977000
    57  H          0.42419700       0.05983800       0.86409300
    58  H          0.57580300       0.94016200       0.13590700
    59  C          0.38623000       0.28793000       0.65273000
    60  C          0.61377000       0.71207000       0.34727000
    61  H          0.37676900       0.34937500       0.60119900
    62  H          0.62323100       0.65062500       0.39880100
    63  C          0.28733000       0.87307000       0.28083000
    64  C          0.71267000       0.12693000       0.71917000
    65  H          0.28569800       0.81635600       0.33682800
    66  H          0.71430200       0.18364400       0.66317200
    67  C          0.27293000       0.91776000       0.08253000
    68  C          0.72707000       0.08224000       0.91747000
    69  H          0.26252000       0.89260100       0.00475900
    70  H          0.73748000       0.10739900      -0.00475900
    71  C          0.29193000       0.03814000       0.11423000
    72  C          0.70807000       0.96186000       0.88577000
    73  H          0.29274100       0.09433600       0.05764500
    74  H          0.70725900       0.90566400       0.94235500
    75  C          0.26953000       0.83536000       0.16574000
    76  C          0.73047000       0.16464000       0.83426000
    77  H          0.25521100       0.75415000       0.14471200
    78  H          0.74478900       0.24585000       0.85528800
    79  N          0.11833000       0.44353000       0.92442000
    80  N          0.88167000       0.55647000       0.07558000
    81  C         -0.01303000       0.18833000       0.39753000
    82  C          0.01303000       0.81167000       0.60247000
    83  C          0.06533000       0.36543000       0.69093000
    84  C          0.93467000       0.63457000       0.30907000
    85  C         -0.00403000       0.22943000       0.51993000
    86  C          0.00403000       0.77057000       0.48007000
    87  H          0.95986400       0.17861700       0.56859100
    88  H          0.04013600       0.82138300       0.43140900
    89  C          0.15343000       0.50623000       0.84083000
    90  C          0.84657000       0.49377000       0.15917000
    91  H          0.19710500       0.57874900       0.86051000
    92  H          0.80289500       0.42125100       0.13949000
    93  C          0.02473000       0.30163000       0.77763000
    94  C          0.97527000       0.69837000       0.22237000
    95  H          0.97813600       0.23036500       0.75987400
    96  H          0.02186400       0.76963500       0.24012600
    97  C          0.03713000       0.25263000       0.31483000
    98  C          0.96287000       0.74737000       0.68517000
    99  H          0.07717300       0.32681600       0.33523900
   100  H          0.92282700       0.67318400       0.66476100
   101  C          0.04803000       0.32743000       0.56733000
   102  C          0.95197000       0.67257000       0.43267000
   103  H          0.07844000       0.38090700       0.51756600
   104  H          0.92156000       0.61909300       0.48243400
   105  C          0.05284000       0.34284000       0.89163000
   106  C          0.94716000       0.65716000       0.10837000
   107  H          0.02415600       0.29723100       0.94851000
   108  H          0.97584400       0.70276900       0.05149000
   109  C          0.91846000       0.03594000       0.25054000
   110  C          0.08154000       0.96406000       0.74946000
   111  H          0.87774700       0.96239200       0.22850000
   112  H          0.12225300       0.03760800       0.77150000
   113  C          0.92717000       0.07963000       0.36433000
   114  C          0.07283000       0.92037000       0.63567000
   115  H          0.89220800       0.03512500       0.41858700
   116  H          0.10779200       0.96487500       0.58141300
   117  C          0.12964000       0.47143000       0.72663000
   118  C          0.87036000       0.52857000       0.27337000
   119  H          0.15735600       0.52036200       0.67171200
   120  H          0.84264400       0.47963800       0.32828800
   121  C          0.02834000       0.20794000       0.20323000
   122  C          0.97166000       0.79206000       0.79677000
   123  H          0.06319600       0.25208200       0.14870600
   124  H          0.93680400       0.74791800       0.85129400
   125  C          0.97006000       0.10115000       0.17043000
   126  C          0.02994000       0.89885000       0.82957000
   127  H          0.96504100       0.07197600       0.09402300
   128  H          0.03495900       0.92802400       0.90597700
