data_YICMUU
_symmetry_space_group_name_H-M    'P1'
_symmetry_Int_Tables_number       1
loop_
_symmetry_equiv_pos_site_id
_symmetry_equiv_pos_as_xyz
1 x,y,z
_cell_length_a                   9.0352
_cell_length_b                   20.0465
_cell_length_c                   11.3773
_cell_angle_alpha                90.0
_cell_angle_beta                 95.0214
_cell_angle_gamma                90.0
loop_
_atom_site_label
_atom_site_type_symbol
_atom_site_fract_x
_atom_site_fract_y
_atom_site_fract_z
     1  C          0.81412000       0.40268100       0.82298180
     2  C          0.18588000       0.90268100       0.67701820
     3  C          0.18588000       0.59731900       0.17701820
     4  C          0.81412000       0.09731900       0.32298180
     5  C          0.82882000       0.36536110       0.92611190
     6  C          0.17118000       0.86536110       0.57388810
     7  C          0.17118000       0.63463890       0.07388810
     8  C          0.82882000       0.13463890       0.42611190
     9  H          0.83690000       0.31820000       0.92270000
    10  H          0.16310000       0.81820000       0.57730000
    11  H          0.16310000       0.68180000       0.07730000
    12  H          0.83690000       0.18180000       0.42270000
    13  C          0.83173000       0.39756110       0.03409190
    14  C          0.16827000       0.89756110       0.46590810
    15  C          0.16827000       0.60243890       0.96590810
    16  C          0.83173000       0.10243890       0.53409190
    17  H          0.84270000       0.37230000       0.10500000
    18  H          0.15730000       0.87230000       0.39500000
    19  H          0.15730000       0.62770000       0.89500000
    20  H          0.84270000       0.12770000       0.60500000
    21  C          0.81862000       0.46668110       0.03916190
    22  C          0.18138000       0.96668110       0.46083810
    23  C          0.18138000       0.53331890       0.96083810
    24  C          0.81862000       0.03331890       0.53916190
    25  H          0.81840000       0.48810000       0.11360000
    26  H          0.18160000       0.98810000       0.38640000
    27  H          0.18160000       0.51190000       0.88640000
    28  H          0.81840000       0.01190000       0.61360000
    29  C          0.80582000       0.50459110       0.93677190
    30  C          0.19418000       0.00459110       0.56322810
    31  C          0.19418000       0.49540890       0.06322810
    32  C          0.80582000      -0.00459110       0.43677190
    33  H          0.79810000       0.55180000       0.94090000
    34  H          0.20190000       0.05180000       0.55910000
    35  H          0.20190000       0.44820000       0.05910000
    36  H          0.79810000       0.94820000       0.44090000
    37  C          0.80432000       0.47279100       0.82776180
    38  C          0.19568000       0.97279100       0.67223820
    39  C          0.19568000       0.52720900       0.17223820
    40  C          0.80432000       0.02720900       0.32776180
    41  C          0.60342000       0.33766100       0.65141180
    42  C          0.39658000       0.83766100       0.84858820
    43  C          0.39658000       0.66233900       0.34858820
    44  C          0.60342000       0.16233900       0.15141180
    45  H          0.58410000       0.32470000       0.56840000
    46  H          0.41590000       0.82470000       0.93160000
    47  H          0.41590000       0.67530000       0.43160000
    48  H          0.58410000       0.17530000       0.06840000
    49  H          0.53320000       0.37250000       0.67010000
    50  H          0.46680000       0.87250000       0.82990000
    51  H          0.46680000       0.62750000       0.32990000
    52  H          0.53320000       0.12750000       0.17010000
    53  H          0.59130000       0.29870000       0.70180000
    54  H          0.40870000       0.79870000       0.79820000
    55  H          0.40870000       0.70130000       0.29820000
    56  H          0.59130000       0.20130000       0.20180000
    57  C          0.91932000       0.30538100       0.65049190
    58  C          0.08068000       0.80538100       0.84950810
    59  C          0.08068000       0.69461900       0.34950810
    60  C          0.91932000       0.19461900       0.15049190
    61  H          0.90690000       0.26760000       0.70340000
    62  H          0.09310000       0.76760000       0.79660000
    63  H          0.09310000       0.73240000       0.29660000
    64  H          0.90690000       0.23240000       0.20340000
    65  H          0.02020000       0.32330000       0.66520000
    66  H          0.97980000       0.82330000       0.83480000
    67  H          0.97980000       0.67670000       0.33480000
    68  H          0.02020000       0.17670000       0.16520000
    69  H          0.90320000       0.29040000       0.56840000
    70  H          0.09680000       0.79040000       0.93160000
    71  H          0.09680000       0.70960000       0.43160000
    72  H          0.90320000       0.20960000       0.06840000
    73  C          0.60572000       0.54984100       0.65922000
    74  C          0.39428000       0.04984100       0.84078000
    75  C          0.39428000       0.45015900       0.34078000
    76  C          0.60572000       0.95015900       0.15922000
    77  H          0.59410000       0.58670000       0.71410000
    78  H          0.40590000       0.08670000       0.78590000
    79  H          0.40590000       0.41330000       0.28590000
    80  H          0.59410000       0.91330000       0.21410000
    81  H          0.53000000       0.51580000       0.66950000
    82  H          0.47000000       0.01580000       0.83050000
    83  H          0.47000000       0.48420000       0.33050000
    84  H          0.53000000       0.98420000       0.16950000
    85  H          0.59390000       0.56670000       0.57800000
    86  H          0.40610000       0.06670000       0.92200000
    87  H          0.40610000       0.43330000       0.42200000
    88  H          0.59390000       0.93330000       0.07800000
    89  C          0.92272000       0.57704100       0.67859190
    90  C          0.07728000       0.07704100       0.82140810
    91  C          0.07728000       0.42295900       0.32140810
    92  C          0.92272000       0.92295900       0.17859190
    93  H          0.90880000       0.59880000       0.60120000
    94  H          0.09120000       0.09880000       0.89880000
    95  H          0.09120000       0.40120000       0.39880000
    96  H          0.90880000       0.90120000       0.10120000
    97  H          0.02180000       0.55680000       0.68870000
    98  H          0.97820000       0.05680000       0.81130000
    99  H          0.97820000       0.44320000       0.31130000
   100  H          0.02180000       0.94320000       0.18870000
   101  H          0.91320000       0.61020000       0.74070000
   102  H          0.08680000       0.11020000       0.75930000
   103  H          0.08680000       0.38980000       0.25930000
   104  H          0.91320000       0.88980000       0.24070000
   105  C          0.81372000       0.44352800       0.59275180
   106  C          0.18628000       0.94352800       0.90724820
   107  C          0.18628000       0.55647200       0.40724820
   108  C          0.81372000       0.05647200       0.09275180
   109  H          0.74130000       0.44480000       0.52230000
   110  H          0.25870000       0.94480000       0.97770000
   111  H          0.25870000       0.55520000       0.47770000
   112  H          0.74130000       0.05520000       0.02230000
   113  H          0.91520000       0.44470000       0.56620000
   114  H          0.08480000       0.94470000       0.93380000
   115  H          0.08480000       0.55530000       0.43380000
   116  H          0.91520000       0.05530000       0.06620000
   117  P          0.78834600       0.36851300       0.67679500
   118  P          0.21165400       0.86851300       0.82320500
   119  P          0.21165400       0.63148700       0.32320500
   120  P          0.78834600       0.13148700       0.17679500
   121  P          0.78556600       0.51412300       0.68787500
   122  P          0.21443400       0.01412300       0.81212500
   123  P          0.21443400       0.48587700       0.31212500
   124  P          0.78556600       0.98587700       0.18787500
   125  C          0.21533000       0.23651130       0.41792000
   126  C          0.78467000       0.73651130       0.08208000
   127  C          0.78467000       0.76348870       0.58208000
   128  C          0.21533000       0.26348870       0.91792000
   129  H          0.18810000       0.19550000       0.37430000
   130  H          0.81190000       0.69550000       0.12570000
   131  H          0.81190000       0.80450000       0.62570000
   132  H          0.18810000       0.30450000       0.87430000
   133  H          0.28060000       0.26350000       0.37270000
   134  H          0.71940000       0.76350000       0.12730000
   135  H          0.71940000       0.73650000       0.62730000
   136  H          0.28060000       0.23650000       0.87270000
   137  H          0.12520000       0.26190000       0.43020000
   138  H          0.87480000       0.76190000       0.06980000
   139  H          0.87480000       0.73810000       0.56980000
   140  H          0.12520000       0.23810000       0.93020000
   141  C          0.45793000       0.16969120       0.50142000
   142  C          0.54207000       0.66969120      -0.00142000
   143  C          0.54207000       0.83030880       0.49858000
   144  C          0.45793000       0.33030880       0.00142000
   145  H          0.52050000       0.14960000       0.56670000
   146  H          0.47950000       0.64960000       0.93330000
   147  H          0.47950000       0.85040000       0.43330000
   148  H          0.52050000       0.35040000       0.06670000
   149  H          0.51800000       0.19990000       0.45730000
   150  H          0.48200000       0.69990000       0.04270000
   151  H          0.48200000       0.80010000       0.54270000
   152  H          0.51800000       0.30010000       0.95730000
   153  H          0.41600000       0.13450000       0.44870000
   154  H          0.58400000       0.63450000       0.05130000
   155  H          0.58400000       0.86550000       0.55130000
   156  H          0.41600000       0.36550000       0.94870000
   157  S          0.31062700       0.21551300       0.55877600
   158  S          0.68937300       0.71551300       0.94122400
   159  S          0.68937300       0.78448700       0.44122400
   160  S          0.31062700       0.28448700       0.05877600
   161  O          0.21482000       0.16592800       0.61506150
   162  O          0.78518000       0.66592800       0.88493850
   163  O          0.78518000       0.83407200       0.38493850
   164  O          0.21482000       0.33407200       0.11506150
   165  I          0.76305315       0.56669970       0.33651713
   166  I          0.23694685       0.06669970       0.16348287
   167  I          0.23694685       0.43330030       0.66348287
   168  I          0.76305315       0.93330030       0.83651713
   169  I          0.70707916       0.32308170       0.33477512
   170  I          0.29292084       0.82308170       0.16522488
   171  I          0.29292084       0.67691830       0.66522488
   172  I          0.70707916       0.17691830       0.83477512
