data_YILJIO
_symmetry_space_group_name_H-M    'P1'
_symmetry_Int_Tables_number       1
loop_
_symmetry_equiv_pos_site_id
_symmetry_equiv_pos_as_xyz
1 x,y,z
_cell_length_a                   8.709001
_cell_length_b                   8.979901
_cell_length_c                   26.03763
_cell_angle_alpha                89.51464
_cell_angle_beta                 84.86304
_cell_angle_gamma                85.52135
loop_
_atom_site_label
_atom_site_type_symbol
_atom_site_fract_x
_atom_site_fract_y
_atom_site_fract_z
     1  I          0.30529400       0.36165400       0.46246813
     2  I          0.69470600       0.63834600       0.53753187
     3  C          0.48776000       0.28885000       0.50675190
     4  C          0.51224000       0.71115000       0.49324810
     5  N          0.63725000       0.25785000       0.48840160
     6  N          0.36275000       0.74215000       0.51159840
     7  C          0.70016000       0.27126000       0.43441190
     8  C          0.29984000       0.72874000       0.56558810
     9  C          0.75566000       0.12226000       0.40984190
    10  C          0.24434000       0.87774000       0.59015810
    11  C          0.67956000      -0.00754000       0.42025190
    12  C          0.32044000       0.00754000       0.57974810
    13  C          0.73106000       0.85966000       0.39526180
    14  C          0.26894000       0.14034000       0.60473820
    15  C          0.85977000       0.85646000       0.35862190
    16  C          0.14023000       0.14354000       0.64137810
    17  C          0.93396000      -0.01394000       0.34802000
    18  C          0.06604000       0.01394000       0.65198000
    19  C          0.88396000       0.11756000       0.37369190
    20  C          0.11604000       0.88244000       0.62630810
    21  C          0.66046000       0.71346000       0.40732000
    22  C          0.33954000       0.28654000       0.59268000
    23  N          0.51885000       0.72845000       0.44202160
    24  N          0.48115000       0.27155000       0.55797840
    25  C          0.37256000       0.77266000       0.42702000
    26  C          0.62744000       0.22734000       0.57298000
    27  C          0.72616000       0.22026000       0.52882000
    28  C          0.27384000       0.77974000       0.47118000
    29  C          0.89557000       0.18758000       0.52112000
    30  C          0.10443000       0.81242000       0.47888000
    31  C          0.34218000       0.79468000       0.37252000
    32  C          0.65782000       0.20532000       0.62748000
    33  H          0.77840000       0.33930000       0.43180000
    34  H          0.22160000       0.66070000       0.56820000
    35  H          0.61760000       0.30970000       0.41600000
    36  H          0.38240000       0.69030000       0.58400000
    37  H          0.58850000       0.00120000       0.44100000
    38  H          0.41150000      -0.00120000       0.55900000
    39  H          0.89100000       0.77100000       0.33990000
    40  H          0.10900000       0.22900000       0.66010000
    41  H          0.01960000       0.98170000       0.32390000
    42  H          0.98040000       0.01830000       0.67610000
    43  H          0.93320000       0.20140000       0.36640000
    44  H          0.06680000       0.79860000       0.63360000
    45  H          0.73530000       0.64940000       0.42620000
    46  H          0.26470000       0.35060000       0.57380000
    47  H          0.63560000       0.66430000       0.37520000
    48  H          0.36440000       0.33570000       0.62480000
    49  H          0.92990000       0.13320000       0.55060000
    50  H          0.07010000       0.86680000       0.44940000
    51  H          0.94330000       0.28180000       0.51760000
    52  H          0.05670000       0.71820000       0.48240000
    53  H          0.91810000       0.12750000       0.48990000
    54  H          0.08190000       0.87250000       0.51010000
    55  H          0.24170000       0.84880000       0.36970000
    56  H          0.75830000       0.15120000       0.63030000
    57  H          0.34200000       0.69310000       0.35840000
    58  H          0.65800000       0.30690000       0.64160000
    59  H          0.42240000       0.84610000       0.35310000
    60  H          0.57760000       0.15390000       0.64690000
    61  I          0.81566600       0.35053400       0.95047913
    62  I          0.18433400       0.64946600       0.04952087
    63  C         -0.00766000       0.28895000      -0.00154810
    64  C          0.00766000       0.71105000       0.00154810
    65  N          0.97815000       0.27675000       0.05017160
    66  N          0.02185000       0.72325000       0.94982840
    67  C          0.12186000       0.24116000       0.06812000
    68  C          0.87814000       0.75884000       0.93188000
    69  C          0.22576000       0.23236000       0.02612000
    70  C          0.77424000       0.76764000       0.97388000
    71  N          0.14425000       0.26195000       0.98342170
    72  N          0.85575000       0.73805000       0.01657830
    73  C          0.21386000       0.26566000       0.93002000
    74  C          0.78614000       0.73434000       0.06998000
    75  C          0.26566000       0.11215000       0.90885190
    76  C          0.73434000       0.88785000       0.09114810
    77  C          0.18986000       0.98404000       0.92341190
    78  C          0.81014000       0.01596000       0.07658810
    79  C          0.23786000       0.84694000       0.90097190
    80  C          0.76214000       0.15306000       0.09902810
    81  C          0.16826000       0.70294000       0.91742000
    82  C          0.83174000       0.29706000       0.08258000
    83  C          0.36266000       0.83764000       0.86299190
    84  C          0.63734000       0.16236000       0.13700810
    85  C          0.43966000       0.96294000       0.84912000
    86  C          0.56034000       0.03706000       0.15088000
    87  C          0.39376000       0.09896000       0.87200190
    88  C          0.60624000       0.90104000       0.12799810
    89  C          0.39837000       0.20457000       0.02172000
    90  C          0.60163000       0.79543000       0.97828000
    91  C          0.14458000       0.22718000       0.12402000
    92  C          0.85542000       0.77282000       0.87598000
    93  H          0.13730000       0.30630000       0.90980000
    94  H          0.86270000       0.69370000       0.09020000
    95  H          0.29800000       0.32850000       0.92790000
    96  H          0.70200000       0.67150000       0.07210000
    97  H          0.10030000      -0.00370000       0.94590000
    98  H          0.89970000       0.00370000       0.05410000
    99  H          0.14450000       0.64780000       0.88720000
   100  H          0.85550000       0.35220000       0.11280000
   101  H          0.23900000       0.64460000       0.93590000
   102  H          0.76100000       0.35540000       0.06410000
   103  H          0.39290000       0.74870000       0.84690000
   104  H          0.60710000       0.25130000       0.15310000
   105  H          0.52030000       0.95270000       0.82380000
   106  H          0.47970000       0.04730000       0.17620000
   107  H          0.44390000       0.17900000       0.86270000
   108  H          0.55610000       0.82100000       0.13730000
   109  H          0.43050000       0.14820000       0.98910000
   110  H          0.56950000       0.85180000       0.01090000
   111  H          0.43230000       0.14720000       0.05070000
   112  H          0.56770000       0.85280000       0.94930000
   113  H          0.44480000       0.30210000       0.02070000
   114  H          0.55520000       0.69790000       0.97930000
   115  H          0.24440000       0.17520000       0.13110000
   116  H          0.75560000       0.82480000       0.86890000
   117  H          0.06330000       0.17240000       0.14100000
   118  H          0.93670000       0.82760000       0.85900000
   119  H          0.14010000       0.32600000       0.13920000
   120  H          0.85990000       0.67400000       0.86080000
   121  Br         0.43427600       0.52899500       0.11943200
   122  Br         0.56572400       0.47100500       0.88056800
   123  Br         0.05582500       0.49010500       0.39204200
   124  Br         0.94417500       0.50989500       0.60795800
   125  S          0.24298180       0.52483180       0.78283600
   126  S          0.75701820       0.47516820       0.21716400
   127  O          0.12666000       0.46245000       0.82175170
   128  O          0.87334000       0.53755000       0.17824830
   129  C          0.35259000       0.37169000       0.75143000
   130  C          0.64741000       0.62831000       0.24857000
   131  C          0.13919000       0.59151100       0.73043000
   132  C          0.86081000       0.40848900       0.26957000
   133  H          0.42740000       0.40740000       0.72650000
   134  H          0.57260000       0.59260000       0.27350000
   135  H          0.28520000       0.31320000       0.73480000
   136  H          0.71480000       0.68680000       0.26520000
   137  H          0.40320000       0.31200000       0.77610000
   138  H          0.59680000       0.68800000       0.22390000
   139  H          0.20840000       0.63220000       0.70470000
   140  H          0.79160000       0.36780000       0.29530000
   141  H          0.09220000       0.51110000       0.71610000
   142  H          0.90780000       0.48890000       0.28390000
   143  H          0.06140000       0.66660000       0.74220000
   144  H          0.93860000       0.33340000       0.25780000
   145  S          0.16712000       0.86868190       0.20133600
   146  S          0.83288000       0.13131810       0.79866400
   147  O          0.21706000       0.97826000       0.23802000
   148  O          0.78294000       0.02174000       0.76198000
   149  C          0.96131000       0.89239000       0.20483000
   150  C          0.03869000       0.10761000       0.79517000
   151  C          0.17769000       0.69239000       0.23323000
   152  C          0.82231000       0.30761000       0.76677000
   153  H          0.92430000       0.82420000       0.18190000
   154  H          0.07570000       0.17580000       0.81810000
   155  H          0.91990000       0.87380000       0.23900000
   156  H          0.08010000       0.12620000       0.76100000
   157  H          0.93020000      -0.00830000       0.19520000
   158  H          0.06980000       0.00830000       0.80480000
   159  H          0.14680000       0.61850000       0.21120000
   160  H          0.85320000       0.38150000       0.78880000
   161  H          0.11090000       0.69740000       0.26420000
   162  H          0.88910000       0.30260000       0.73580000
   163  H          0.28080000       0.66690000       0.24110000
   164  H          0.71920000       0.33310000       0.75890000
   165  S          0.42253190       0.25011190       0.32160600
   166  S          0.57746810       0.74988810       0.67839400
   167  O          0.52126000       0.37536000       0.33097170
   168  O          0.47874000       0.62464000       0.66902830
   169  C          0.54578000       0.11298000       0.28552000
   170  C          0.45422000       0.88702000       0.71448000
   171  C          0.31029000       0.31088000       0.26983000
   172  C          0.68971000       0.68912000       0.73017000
   173  H          0.24520000       0.23520000       0.26220000
   174  H          0.75480000       0.76480000       0.73780000
   175  H          0.24850000       0.39960000       0.27960000
   176  H          0.75150000       0.60040000       0.72040000
   177  H          0.37750000       0.33000000       0.24010000
   178  H          0.62250000       0.67000000       0.75990000
   179  H          0.48810000       0.03090000       0.27860000
   180  H          0.51190000       0.96910000       0.72140000
   181  H          0.62930000       0.07930000       0.30480000
   182  H          0.37070000       0.92070000       0.69520000
   183  H          0.58480000       0.15510000       0.25390000
   184  H          0.41520000       0.84490000       0.74610000
