data_YINFIK
_symmetry_space_group_name_H-M    'P1'
_symmetry_Int_Tables_number       1
loop_
_symmetry_equiv_pos_site_id
_symmetry_equiv_pos_as_xyz
1 x,y,z
_cell_length_a                   7.77
_cell_length_b                   7.839
_cell_length_c                   20.151
_cell_angle_alpha                90.78
_cell_angle_beta                 97.36
_cell_angle_gamma                104.54
loop_
_atom_site_label
_atom_site_type_symbol
_atom_site_fract_x
_atom_site_fract_y
_atom_site_fract_z
     1  C          0.31714000       0.68406000       0.35482000
     2  C          0.68286000       0.31594000       0.64518000
     3  H          0.27364000       0.56106000       0.33602000
     4  H          0.72636000       0.43894000       0.66398000
     5  H          0.38024000       0.75726000       0.32122000
     6  H          0.61976000       0.24274000       0.67878000
     7  C          0.16214000       0.75166000       0.36982000
     8  C          0.83786000       0.24834000       0.63018000
     9  H          0.06854000       0.73016000       0.33022000
    10  H          0.93146000       0.26984000       0.66978000
    11  H          0.10914000       0.68906000       0.40762000
    12  H          0.89086000       0.31094000       0.59238000
    13  C          0.08264000       0.01515000       0.39822000
    14  C          0.91736000      -0.01515000       0.60178000
    15  H          0.00624000       0.94295000       0.42862000
    16  H         -0.00624000       0.05705000       0.57138000
    17  H          0.00664000       0.02045000       0.35532000
    18  H         -0.00664000       0.97955000       0.64468000
    19  C          0.15984000       0.19614000       0.42872000
    20  C          0.84016000       0.80386000       0.57128000
    21  H          0.25204000       0.26244000       0.40252000
    22  H          0.74796000       0.73756000       0.59748000
    23  H          0.06434000       0.25944000       0.42832000
    24  H          0.93566000       0.74056000       0.57168000
    25  C          0.28784000       0.35054000       0.53152000
    26  C          0.71216000       0.64946000       0.46848000
    27  H          0.17874000       0.38684000       0.53952000
    28  H          0.82126000       0.61316000       0.46048000
    29  H          0.35794000       0.44084000       0.50472000
    30  H          0.64206000       0.55916000       0.49528000
    31  C          0.39714000       0.33935000       0.59662000
    32  C          0.60286000       0.66065000       0.40338000
    33  H          0.41824000       0.45055000       0.62382000
    34  H          0.58176000       0.54945000       0.37618000
    35  H          0.33194000       0.24165000       0.62172000
    36  H          0.66806000       0.75835000       0.37828000
    37  O          0.22313000       0.93507000       0.38656120
    38  O          0.77687000       0.06493000       0.61343880
    39  O          0.23803000       0.18543000       0.49554110
    40  O          0.76197000       0.81457000       0.50445890
    41  O          0.43643000       0.69067000       0.41484110
    42  O          0.56357000       0.30933000       0.58515890
    43  N          0.60763000       0.31973000       0.27173140
    44  N          0.39237000       0.68027000       0.72826860
    45  H          0.58404700       0.26545200       0.30152000
    46  H          0.41595300       0.73454800       0.69848000
    47  S          0.81716900       0.35946900       0.25622400
    48  S          0.18283100       0.64053100       0.74377600
    49  S          0.42732100       0.32324110       0.21968500
    50  S          0.57267900       0.67675890       0.78031500
    51  O          0.91283000       0.33973000       0.31961110
    52  O          0.08717000       0.66027000       0.68038890
    53  O          0.86363000       0.52183000       0.22375120
    54  O          0.13637000       0.47817000       0.77624880
    55  O          0.47564000       0.46243000       0.17632000
    56  O          0.52436000       0.53757000       0.82368000
    57  O          0.29333000       0.31734000       0.26322000
    58  O          0.70667000       0.68266000       0.73678000
    59  C          0.82183000       0.18764000       0.20032000
    60  C          0.17817000       0.81236000       0.79968000
    61  C          0.88664000       0.22714000       0.13992000
    62  C          0.11336000       0.77286000       0.86008000
    63  H          0.93114000       0.34634000       0.12902000
    64  H          0.06886000       0.65366000       0.87098000
    65  C          0.88524000       0.09085000       0.09592000
    66  C          0.11476000       0.90915000       0.90408000
    67  H          0.93174000       0.11495000       0.05472000
    68  H          0.06826000       0.88505000       0.94528000
    69  C          0.81554000       0.91786000       0.11212000
    70  C          0.18446000       0.08214000       0.88788000
    71  C          0.75074000       0.87736000       0.17252000
    72  C          0.24926000       0.12264000       0.82748000
    73  H          0.70424000       0.75816000       0.18302000
    74  H          0.29576000       0.24184000       0.81698000
    75  C          0.75534000       0.01314000       0.21662000
    76  C          0.24466000      -0.01314000       0.78338000
    77  H          0.71314000      -0.01154000       0.25862000
    78  H          0.28686000       0.01154000       0.74138000
    79  C          0.36584000       0.12244000       0.17232000
    80  C          0.63416000       0.87756000       0.82768000
    81  C          0.40494000       0.11545000       0.10762000
    82  C          0.59506000       0.88455000       0.89238000
    83  H          0.46444000       0.21955000       0.08802000
    84  H          0.53556000       0.78045000       0.91198000
    85  C          0.35654000       0.95535000       0.07172000
    86  C          0.64346000       0.04465000       0.92828000
    87  H          0.38094000       0.94915000       0.02682000
    88  H          0.61906000       0.05085000       0.97318000
    89  C          0.27284000       0.80436000       0.10112000
    90  C          0.72716000       0.19564000       0.89888000
    91  C          0.23204000       0.81076000       0.16522000
    92  C          0.76796000       0.18924000       0.83478000
    93  H          0.17244000       0.70636000       0.18472000
    94  H          0.82756000       0.29364000       0.81528000
    95  C          0.27854000       0.96996000       0.20112000
    96  C          0.72146000       0.03004000       0.79888000
    97  H          0.25104000       0.97586000       0.24552000
    98  H          0.74896000       0.02414000       0.75448000
    99  Cl         0.80308130       0.74746860       0.05434500
   100  Cl         0.19691870       0.25253140       0.94565500
   101  Cl         0.21420130       0.60609870       0.05474500
   102  Cl         0.78579870       0.39390130       0.94525500
   103  O          0.56183000       0.10953000       0.37313120
   104  O          0.43817000       0.89047000       0.62686880
   105  H          0.45872100       0.04684700       0.37652000
   106  H          0.54127900       0.95315300       0.62348000
   107  C          0.65424000       0.17224000       0.43862000
   108  C          0.34576000       0.82776000       0.56138000
   109  H          0.70222700       0.07911100       0.45995000
   110  H          0.29777300       0.92088900       0.54005000
   111  H          0.57069000       0.20452900       0.46594000
   112  H          0.42931000       0.79547100       0.53406000
   113  H          0.75312000       0.27591900       0.43462000
   114  H          0.24688000       0.72408100       0.56538000
