data_YINWID
_symmetry_space_group_name_H-M    'P1'
_symmetry_Int_Tables_number       1
loop_
_symmetry_equiv_pos_site_id
_symmetry_equiv_pos_as_xyz
1 x,y,z
_cell_length_a                   5.87213
_cell_length_b                   8.37974
_cell_length_c                   34.491914
_cell_angle_alpha                92.6234
_cell_angle_beta                 93.8594
_cell_angle_gamma                103.7914
loop_
_atom_site_label
_atom_site_type_symbol
_atom_site_fract_x
_atom_site_fract_y
_atom_site_fract_z
     1  Cl         0.79199130       0.25816900       0.44938200
     2  Cl         0.20800870       0.74183100       0.55061800
     3  Cl         0.71152000       0.86354900       0.48694300
     4  Cl         0.28848000       0.13645100       0.51305700
     5  O          0.55993000       0.19542000       0.36653500
     6  O          0.44007000       0.80458000       0.63346500
     7  O          0.21503000       0.26552000       0.35451500
     8  O          0.78497000       0.73448000       0.64548500
     9  O          0.01763000       0.19813000       0.27337500
    10  O         -0.01763000       0.80187000       0.72662500
    11  N          0.11683000       0.94968000       0.37759600
    12  N          0.88317000       0.05032000       0.62240400
    13  O          0.25056000       0.84297000       0.00009600
    14  O          0.74944000       0.15703000      -0.00009600
    15  N          0.56367000       0.85517000       0.13477600
    16  N          0.43633000       0.14483000       0.86522400
    17  N          0.43846000       0.77717000       0.05321600
    18  N          0.56154000       0.22283000       0.94678400
    19  C          0.67996000       0.94287000       0.16988700
    20  C          0.32004000       0.05713000       0.83011300
    21  C          0.84705000       0.88347000       0.19143800
    22  C          0.15295000       0.11653000       0.80856200
    23  H          0.88170000       0.78610000       0.18260000
    24  H          0.11830000       0.21390000       0.81740000
    25  C          0.91145000       0.10843000       0.23959700
    26  C          0.08855000       0.89157000       0.76040300
    27  C          0.45034000       0.38653000       0.41293700
    28  C          0.54966000       0.61347000       0.58706300
    29  C          0.74495000       0.16853000       0.21933700
    30  C          0.25505000       0.83147000       0.78066300
    31  H          0.70860000       0.26460000       0.22870000
    32  H          0.29140000       0.73540000       0.77130000
    33  C          0.33275000       0.51073000       0.41143800
    34  C          0.66725000       0.48927000       0.58856200
    35  H          0.19990000       0.49670000       0.39410000
    36  H          0.80010000       0.50330000       0.60590000
    37  C          0.64184000       0.41043000       0.44061700
    38  C          0.35816000       0.58957000       0.55938300
    39  N          0.82296000       0.80417000       0.33825800
    40  N          0.17704000       0.19583000       0.66174200
    41  C          0.36894000       0.23343000       0.38453600
    42  C          0.63106000       0.76657000       0.61546400
    43  C          0.72466000       0.80187000       0.10916700
    44  C          0.27534000       0.19813000       0.89083300
    45  H          0.81760000       0.74020000       0.12380000
    46  H          0.18240000       0.25980000       0.87620000
    47  H          0.83180000       0.89810000       0.10050000
    48  H          0.16820000       0.10190000       0.89950000
    49  C          0.62956000       0.08683000       0.18477700
    50  C          0.37044000       0.91317000       0.81522300
    51  H          0.51670000       0.12920000       0.17140000
    52  H          0.48330000       0.87080000       0.82860000
    53  C          0.20345000       0.83857000       0.35626800
    54  C          0.79655000       0.16143000       0.64373200
    55  H          0.35720000       0.82690000       0.35790000
    56  H          0.64280000       0.17310000       0.64210000
    57  C          0.60326000       0.67803000       0.45967800
    58  C          0.39674000       0.32197000       0.54032200
    59  C          0.41245000       0.78907000       0.01459700
    60  C          0.58755000       0.21093000       0.98540300
    61  C          0.24474000       0.08303000       0.40489700
    62  C          0.75526000       0.91697000       0.59510300
    63  H          0.36040000       0.04450000       0.42090000
    64  H          0.63960000       0.95550000       0.57910000
    65  H          0.13590000       0.11450000       0.42190000
    66  H          0.86410000       0.88550000       0.57810000
    67  C          0.72225000       0.55613000       0.46368800
    68  C          0.27775000       0.44387000       0.53631200
    69  H          0.85320000       0.57080000       0.48140000
    70  H          0.14680000       0.42920000       0.51860000
    71  C          0.02125000       0.74967000       0.33249800
    72  C         -0.02125000       0.25033000       0.66750200
    73  H          0.02890000       0.66420000       0.31480000
    74  H         -0.02890000       0.33580000       0.68520000
    75  C          0.40496000       0.93497000       0.11319700
    76  C          0.59504000       0.06503000       0.88680300
    77  H          0.49460000       0.03760000       0.10420000
    78  H          0.50540000       0.96240000       0.89580000
    79  H          0.29260000       0.96090000       0.13030000
    80  H          0.70740000       0.03910000       0.86970000
    81  C          0.27336000       0.82586000       0.07836700
    82  C          0.72664000       0.17414000       0.92163300
    83  H          0.17060000       0.72840000       0.08740000
    84  H          0.82940000       0.27160000       0.91260000
    85  H          0.17670000       0.88490000       0.06370000
    86  H          0.82330000       0.11510000       0.93630000
    87  C          0.59665000       0.69587000       0.07393800
    88  C          0.40335000       0.30413000       0.92606200
    89  H          0.71030000       0.67320000       0.05660000
    90  H          0.28970000       0.32680000       0.94340000
    91  H          0.50780000       0.59180000       0.08220000
    92  H          0.49220000       0.40820000       0.91780000
    93  C          0.23805000       0.17294000       0.28742700
    94  C          0.76195000       0.82706000       0.71257300
    95  H          0.34260000       0.18250000       0.26660000
    96  H          0.65740000       0.81750000       0.73340000
    97  H          0.21730000       0.06350000       0.29680000
    98  H          0.78270000       0.93650000       0.70320000
    99  C          0.40546000       0.65553000       0.43480900
   100  C          0.59454000       0.34447000       0.56519100
   101  H          0.32090000       0.73620000       0.43360000
   102  H          0.67910000       0.26380000       0.56640000
   103  C          0.96425000       0.96427000       0.22569800
   104  C          0.03575000       0.03573000       0.77430200
   105  H          0.07720000       0.92250000       0.23920000
   106  H          0.92280000       0.07750000       0.76080000
   107  C          0.88975000       0.92547000       0.36526900
   108  C          0.11025000       0.07453000       0.63473100
   109  H          0.79070000      -0.01280000       0.37470000
   110  H          0.20930000       0.01280000       0.62530000
   111  C          0.34295000       0.30093000       0.32010700
   112  C          0.65705000       0.69907000       0.67989300
   113  H          0.33850000       0.41080000       0.31200000
   114  H          0.66150000       0.58920000       0.68800000
   115  C          0.58944000       0.74136000       0.98955200
   116  C          0.41056000       0.25864000       0.01044800
   117  H          0.52770000       0.72740000       0.96280000
   118  H          0.47230000       0.27260000       0.03720000
   119  H          0.62080000       0.64000000      -0.00240000
   120  H          0.37920000       0.36000000       0.00240000
   121  H          0.73280000       0.82650000       0.99230000
   122  H          0.26720000       0.17350000       0.00770000
   123  C          0.59285000       0.29794000       0.33414800
   124  C          0.40715000       0.70206000       0.66585200
   125  H          0.66890000       0.25090000       0.31400000
   126  H          0.33110000       0.74910000       0.68600000
   127  H          0.68600000       0.40770000       0.34230000
   128  H          0.31400000       0.59230000       0.65770000
   129  O          0.96274000       0.18063000       0.06881600
   130  O          0.03726000       0.81937000       0.93118400
   131  H          0.88150000       0.18490000       0.04880000
   132  H          0.11850000       0.81510000       0.95120000
   133  O          0.47224000       0.74253000       0.28109700
   134  O          0.52776000       0.25747000       0.71890300
   135  H          0.58770000       0.76350000       0.29690000
   136  H          0.41230000       0.23650000       0.70310000
   137  O          0.63854000       0.54933000       0.25836600
   138  O          0.36146000       0.45067000       0.74163400
   139  C          0.13105000       0.45733000       0.15772800
   140  C          0.86895000       0.54267000       0.84227200
   141  H         -0.02380000       0.44220000       0.16730000
   142  H          0.02380000       0.55780000       0.83270000
   143  H          0.16440000       0.55990000       0.14480000
   144  H          0.83560000       0.44010000       0.85520000
   145  C          0.13005000       0.31693000       0.12857800
   146  C          0.86995000       0.68307000       0.87142200
   147  H          0.28910000       0.32660000       0.12120000
   148  H          0.71090000       0.67340000       0.87880000
   149  H          0.08280000       0.21410000       0.14100000
   150  H          0.91720000       0.78590000       0.85900000
   151  C         -0.02995000       0.30953000       0.09230800
   152  C          0.02995000       0.69047000       0.90769200
   153  C          0.49165000       0.62653000       0.25507700
   154  C          0.50835000       0.37347000       0.74492300
   155  C          0.30525000       0.60464000       0.22195800
   156  C          0.69475000       0.39536000       0.77804200
   157  H          0.32360000       0.70740000       0.20930000
   158  H          0.67640000       0.29260000       0.79070000
   159  H          0.15200000       0.58040000       0.23230000
   160  H          0.84800000       0.41960000       0.76770000
   161  C          0.31205000       0.46863000       0.19182800
   162  C          0.68795000       0.53137000       0.80817200
   163  H          0.46760000       0.48890000       0.18240000
   164  H          0.53240000       0.51110000       0.81760000
   165  H          0.28310000       0.36420000       0.20400000
   166  H          0.71690000       0.63580000       0.79600000
   167  O          0.85727000       0.40644000       0.08564100
   168  O          0.14273000       0.59356000       0.91435900
