data_YIPCEG
_symmetry_space_group_name_H-M    'P1'
_symmetry_Int_Tables_number       1
loop_
_symmetry_equiv_pos_site_id
_symmetry_equiv_pos_as_xyz
1 x,y,z
_cell_length_a                   7.69281
_cell_length_b                   7.74111
_cell_length_c                   8.184111
_cell_angle_alpha                80.7342
_cell_angle_beta                 72.1312
_cell_angle_gamma                85.7022
loop_
_atom_site_label
_atom_site_type_symbol
_atom_site_fract_x
_atom_site_fract_y
_atom_site_fract_z
     1  I          0.81120600       0.32518400       0.97567400
     2  I          0.18879400       0.67481600       0.02432600
     3  I          0.61101500       0.45005400       0.28211400
     4  I          0.38898500       0.54994600       0.71788600
     5  N         -0.00915000       0.22585000       0.70415000
     6  N          0.00915000       0.77415000       0.29585000
     7  C          0.13776000       0.12356000       0.70016000
     8  C          0.86224000       0.87644000       0.29984000
     9  H          0.16780000       0.08610000       0.80200000
    10  H          0.83220000       0.91390000       0.19800000
    11  C          0.24646000       0.07156000       0.54706000
    12  C          0.75354000       0.92844000       0.45294000
    13  H          0.34610000      -0.00460000       0.54600000
    14  H          0.65390000       0.00460000       0.45400000
    15  C          0.20446000       0.13506000       0.39366000
    16  C          0.79554000       0.86494000       0.60634000
    17  C          0.05336000       0.24286000       0.40136000
    18  C          0.94664000       0.75714000       0.59864000
    19  H          0.02360000       0.28760000       0.30050000
    20  H          0.97640000       0.71240000       0.69950000
    21  C          0.94593000       0.28446000       0.55886000
    22  C          0.05407000       0.71554000       0.44114000
    23  H          0.84090000       0.35400000       0.56460000
    24  H          0.15910000       0.64600000       0.43540000
    25  O          0.43925000       0.95385000       0.23604000
    26  O          0.56075000       0.04615000       0.76396000
    27  N          0.31656000       0.16475000       0.07885000
    28  N          0.68344000       0.83525000       0.92115000
    29  H          0.38340000       0.13470000      -0.01810000
    30  H          0.61660000       0.86530000       0.01810000
    31  H          0.23930000       0.25110000       0.07950000
    32  H          0.76070000       0.74890000       0.92050000
    33  C          0.33247000       0.07756000       0.22806000
    34  C          0.66753000       0.92244000       0.77194000
