data_YIPFOU
_symmetry_space_group_name_H-M    'P1'
_symmetry_Int_Tables_number       1
loop_
_symmetry_equiv_pos_site_id
_symmetry_equiv_pos_as_xyz
1 x,y,z
_cell_length_a                   6.96076
_cell_length_b                   8.52058
_cell_length_c                   9.13401
_cell_angle_alpha                75.5787
_cell_angle_beta                 71.5878
_cell_angle_gamma                74.4938
loop_
_atom_site_label
_atom_site_type_symbol
_atom_site_fract_x
_atom_site_fract_y
_atom_site_fract_z
     1  P          0.05813110       0.82769100       0.17980900
     2  P          0.94186890       0.17230900       0.82019100
     3  O          0.21643000       0.84357000       0.02492000
     4  O          0.78357000       0.15643000       0.97508000
     5  O          0.83517000       0.89337000       0.16863000
     6  O          0.16483000       0.10663000       0.83137000
     7  H          0.82740000      -0.01340000       0.13040000
     8  H          0.17260000       0.01340000       0.86960000
     9  O          0.06213000       0.64767000       0.26173000
    10  O          0.93787000       0.35233000       0.73827000
    11  H          0.18060000       0.61450000       0.28650000
    12  H          0.81940000       0.38550000       0.71350000
    13  C          0.27944000       0.00454000       0.24733000
    14  C          0.72056000      -0.00454000       0.75267000
    15  H          0.36670000      -0.00930000       0.14850000
    16  H          0.63330000       0.00930000       0.85150000
    17  C          0.10814000       0.93687000       0.30353000
    18  C          0.89186000       0.06313000       0.69647000
    19  C          0.97566000       0.95447000       0.45663000
    20  C          0.02434000       0.04553000       0.54337000
    21  C          0.79786000       0.88387000       0.52123000
    22  C          0.20214000       0.11613000       0.47877000
    23  H          0.76630000       0.82200000       0.46450000
    24  H          0.23370000       0.17800000       0.53550000
    25  C          0.67436000       0.90586000       0.66434000
    26  C          0.32564000       0.09414000       0.33566000
    27  H          0.55650000       0.86070000       0.70490000
    28  H          0.44350000       0.13930000       0.29510000
    29  S          0.58763140       0.54404100       0.27330110
    30  S          0.41236860       0.45595900       0.72669890
    31  C          0.69175000       0.58915000       0.07134000
    32  C          0.30825000       0.41085000       0.92866000
    33  H          0.70830000       0.49420000       0.02630000
    34  H          0.29170000       0.50580000       0.97370000
    35  H          0.82400000       0.61710000       0.04940000
    36  H          0.17600000       0.38290000       0.95060000
    37  H          0.60040000       0.68100000       0.02660000
    38  H          0.39960000       0.31900000       0.97340000
    39  O          0.39774000       0.48023000       0.29844000
    40  O          0.60226000       0.51977000       0.70156000
    41  C          0.76806000       0.36395000       0.31925000
    42  C          0.23194000       0.63605000       0.68075000
    43  H          0.71770000       0.31230000       0.42610000
    44  H          0.28230000       0.68770000       0.57390000
    45  H          0.89770000       0.39250000       0.30580000
    46  H          0.10230000       0.60750000       0.69420000
    47  H          0.78720000       0.28850000       0.25080000
    48  H          0.21280000       0.71150000       0.74920000
