data_YIRREZ
_symmetry_space_group_name_H-M    'P1'
_symmetry_Int_Tables_number       1
loop_
_symmetry_equiv_pos_site_id
_symmetry_equiv_pos_as_xyz
1 x,y,z
_cell_length_a                   7.59091
_cell_length_b                   12.766215
_cell_length_c                   14.751119
_cell_angle_alpha                113.96612
_cell_angle_beta                 95.5431
_cell_angle_gamma                98.4981
loop_
_atom_site_label
_atom_site_type_symbol
_atom_site_fract_x
_atom_site_fract_y
_atom_site_fract_z
     1  Br         0.47432100       0.00486500       0.66106400
     2  Br         0.52567900      -0.00486500       0.33893600
     3  O          0.43135000       0.68773000       0.72443000
     4  O          0.56865000       0.31227000       0.27557000
     5  H          0.47990000       0.70300000       0.78160000
     6  H          0.52010000       0.29700000       0.21840000
     7  O          0.43166000       0.87704000       0.79293000
     8  O          0.56834000       0.12296000       0.20707000
     9  C          0.31907000       0.76434000       0.61704000
    10  C          0.68093000       0.23566000       0.38296000
    11  C          0.39987000       0.78425000       0.71994000
    12  C          0.60013000       0.21575000       0.28006000
    13  C          0.33877000       0.85124000       0.58294000
    14  C          0.66123000       0.14876000       0.41706000
    15  C          0.25828000       0.82915000       0.48624000
    16  C          0.74172000       0.17085000       0.51376000
    17  H          0.26970000       0.88880000       0.46500000
    18  H          0.73030000       0.11120000       0.53500000
    19  C          0.21927000       0.65585000       0.55054000
    20  C          0.78073000       0.34415000       0.44946000
    21  H          0.20300000       0.59610000       0.57150000
    22  H          0.79700000       0.40390000       0.42850000
    23  C          0.14267000       0.63245000       0.45424000
    24  C          0.85733000       0.36755000       0.54576000
    25  H          0.07780000       0.55780000       0.41090000
    26  H          0.92220000       0.44220000       0.58910000
    27  C          0.16228000       0.71956000       0.42254000
    28  C          0.83772000       0.28044000       0.57746000
    29  H          0.11030000       0.70430000       0.35750000
    30  H          0.88970000       0.29570000       0.64250000
    31  Br         0.92710860       0.50137600       0.16693500
    32  Br         0.07289140       0.49862400       0.83306500
    33  O          0.03106000       0.18074000       0.20973000
    34  O          0.96894000       0.81926000       0.79027000
    35  H          0.04390000       0.19350000       0.26930000
    36  H          0.95610000       0.80650000       0.73070000
    37  C          0.92493000       0.25435000       0.09874000
    38  C          0.07507000       0.74565000       0.90126000
    39  O          0.07988000       0.36874000       0.26603000
    40  O          0.92012000       0.63126000       0.73397000
    41  C          0.01648000       0.27625000       0.20114000
    42  C         -0.01648000       0.72375000       0.79886000
    43  C          0.88142000       0.14175000       0.02474000
    44  C          0.11858000       0.85825000       0.97526000
    45  H          0.90970000       0.08120000       0.03930000
    46  H          0.09030000       0.91880000       0.96070000
    47  C          0.79672000       0.31705000       0.97736000
    48  C          0.20328000       0.68295000       0.02264000
    49  H          0.76810000       0.37690000       0.96190000
    50  H          0.23190000       0.62310000       0.03810000
    51  C          0.75722000       0.20556000       0.90576000
    52  C          0.24278000       0.79444000       0.09424000
    53  H          0.70350000       0.18940000       0.84090000
    54  H          0.29650000       0.81060000       0.15910000
    55  C          0.88012000       0.34265000       0.07424000
    56  C          0.11988000       0.65735000       0.92576000
    57  C          0.79542000       0.11605000       0.92756000
    58  C          0.20458000       0.88395000       0.07244000
    59  H          0.76470000       0.03910000       0.87850000
    60  H          0.23530000       0.96090000       0.12150000
    61  N          0.58126000       0.73354000       0.91193000
    62  N          0.41874000       0.26646000       0.08807000
    63  N          0.94448000       0.85055000       0.27874000
    64  N          0.05552000       0.14945000       0.72126000
    65  C          0.76037000       0.79255000       0.10324000
    66  C          0.23963000       0.20745000       0.89676000
    67  C          0.61598000       0.84185000       0.98114000
    68  C          0.38402000       0.15815000       0.01886000
    69  H          0.57840000       0.89840000       0.96390000
    70  H          0.42160000       0.10160000       0.03610000
    71  C          0.86228000       0.82325000       0.20155000
    72  C          0.13772000       0.17675000       0.79845000
    73  C          0.70538000       0.87715000       0.07854000
    74  C          0.29462000       0.12285000       0.92146000
    75  H          0.72720000       0.95500000       0.12540000
    76  H          0.27280000       0.04500000       0.87460000
    77  C          0.72198000       0.67935000       0.03264000
    78  C          0.27802000       0.32065000       0.96736000
    79  H          0.75450000       0.62050000       0.04850000
    80  H          0.24550000       0.37950000       0.95150000
    81  C          0.63428000       0.65285000       0.93754000
    82  C          0.36572000       0.34715000       0.06246000
    83  H          0.61110000       0.57560000       0.88920000
    84  H          0.38890000       0.42440000       0.11080000
    85  N          0.18886000       0.23264000       0.39943000
    86  N          0.81114000       0.76736000       0.60057000
    87  C          0.35317000       0.29045000       0.59284000
    88  C          0.64683000       0.70955000       0.40716000
    89  N          0.51578000       0.34365000       0.77234000
    90  N          0.48422000       0.65635000       0.22766000
    91  C          0.28198000       0.33796000       0.45655000
    92  C          0.71802000       0.66204000       0.54345000
    93  H          0.29160000       0.39260000       0.42970000
    94  H          0.70840000       0.60740000       0.57030000
    95  C          0.25358000       0.18045000       0.53414000
    96  C          0.74642000       0.81955000       0.46586000
    97  H          0.23880000       0.12390000       0.55890000
    98  H          0.76120000       0.87610000       0.44110000
    99  C          0.17568000       0.15515000       0.43794000
   100  C          0.82432000       0.84485000       0.56206000
   101  H          0.11020000       0.07960000       0.39760000
   102  H          0.88980000       0.92040000       0.60240000
   103  C          0.36778000       0.37385000       0.55504000
   104  C          0.63222000       0.62615000       0.44496000
   105  H          0.43180000       0.45000000       0.59350000
   106  H          0.56820000       0.55000000       0.40650000
   107  C          0.44268000       0.32025000       0.69395000
   108  C          0.55732000       0.67975000       0.30605000
