data_YISRUQ
_symmetry_space_group_name_H-M    'P1'
_symmetry_Int_Tables_number       1
loop_
_symmetry_equiv_pos_site_id
_symmetry_equiv_pos_as_xyz
1 x,y,z
_cell_length_a                   8.9593
_cell_length_b                   10.9233
_cell_length_c                   15.2575
_cell_angle_alpha                99.1305
_cell_angle_beta                 105.2005
_cell_angle_gamma                100.8885
loop_
_atom_site_label
_atom_site_type_symbol
_atom_site_fract_x
_atom_site_fract_y
_atom_site_fract_z
     1  B          0.37234000       0.72984000       0.36452000
     2  B          0.62766000       0.27016000       0.63548000
     3  H          0.44220000       0.70020000       0.42480000
     4  H          0.55780000       0.29980000       0.57520000
     5  B          0.08194000       0.78963000       0.27312000
     6  B          0.91806000       0.21037000       0.72688000
     7  H          0.96300000       0.80210000       0.27340000
     8  H          0.03700000       0.19790000       0.72660000
     9  B          0.16323000       0.67203000       0.32171190
    10  B          0.83677000       0.32797000       0.67828810
    11  H          0.09800000       0.60610000       0.35410000
    12  H          0.90200000       0.39390000       0.64590000
    13  B          0.15833000       0.80942000       0.17825190
    14  B          0.84167000       0.19058000       0.82174810
    15  H          0.08640000       0.82970000       0.11420000
    16  H          0.91360000       0.17030000       0.88580000
    17  B          0.28653000       0.62433000       0.25484180
    18  B          0.71347000       0.37567000       0.74515820
    19  H          0.29740000       0.52500000       0.24010000
    20  H          0.70260000       0.47500000       0.75990000
    21  B          0.42104000       0.88573000       0.34562000
    22  B          0.57896000       0.11427000       0.65438000
    23  H          0.52210000       0.96000000       0.39440000
    24  H          0.47790000       0.04000000       0.60560000
    25  B          0.45053000       0.75613000       0.27266180
    26  B          0.54947000       0.24387000       0.72733820
    27  H          0.57020000       0.74460000       0.27340000
    28  H          0.42980000       0.25540000       0.72660000
    29  B          0.36843000       0.87462000       0.22302000
    30  B          0.63157000       0.12538000       0.77698000
    31  H          0.43320000       0.94120000       0.19090000
    32  H          0.56680000       0.05880000       0.80910000
    33  B          0.24754000       0.83484000       0.37572000
    34  B          0.75246000       0.16516000       0.62428000
    35  H          0.23700000       0.87640000       0.44370000
    36  H          0.76300000       0.12360000       0.55630000
    37  B          0.24074000       0.92213000       0.28512000
    38  B          0.75926000       0.07787000       0.71488000
    39  H          0.22370000       0.01990000       0.29270000
    40  H          0.77630000       0.98010000       0.70730000
    41  C          0.29352000       0.71764180       0.17612140
    42  C          0.70648000       0.28235820       0.82387860
    43  C          0.11152000       0.66417190       0.20686150
    44  C          0.88848000       0.33582810       0.79313850
    45  N          0.29942000       0.66144190       0.08850130
    46  N          0.70058000       0.33855810       0.91149870
    47  N         -0.00582000       0.57102000       0.13920160
    48  N          0.00582000       0.42898000       0.86079840
    49  H         -0.01130000       0.49021800       0.15111700
    50  H          0.01130000       0.50978200       0.84888300
    51  H          0.91170000       0.59030000       0.09821700
    52  H          0.08830000       0.40970000       0.90178300
    53  H          0.22630000       0.68220000       0.03691400
    54  H          0.77370000       0.31780000       0.96308600
    55  H          0.29140000       0.57181800       0.08620000
    56  H          0.70860000       0.42818200       0.91380000
    57  C          0.45882000       0.32432180       0.14331150
    58  C          0.54118000       0.67567820       0.85668850
    59  C          0.58343000       0.43272000       0.17227160
    60  C          0.41657000       0.56728000       0.82772840
    61  H          0.59970000       0.48520000       0.13150000
    62  H          0.40030000       0.51480000       0.86850000
    63  C          0.68293000       0.46162000       0.26242170
    64  C          0.31707000       0.53838000       0.73757830
    65  H          0.76730000       0.53380000       0.28190000
    66  H          0.23270000       0.46620000       0.71810000
    67  C          0.66033000       0.38603000       0.32477170
    68  C          0.33967000       0.61397000       0.67522830
    69  C          0.53464000       0.27833000       0.29333190
    70  C          0.46536000       0.72167000       0.70666810
    71  H          0.51850000       0.22560000       0.33390000
    72  H          0.48150000       0.77440000       0.66610000
    73  C          0.43333000       0.24722000       0.20432180
    74  C          0.56667000       0.75278000       0.79567820
    75  H          0.34860000       0.17520000       0.18510000
    76  H          0.65140000       0.82480000       0.81490000
    77  C          0.77245000       0.41754000       0.42262000
    78  C          0.22755000       0.58246000       0.57738000
    79  H          0.86880000       0.47670000       0.42610000
    80  H          0.13120000       0.52330000       0.57390000
    81  H          0.79700000       0.34070000       0.43890000
    82  H          0.20300000       0.65930000       0.56110000
    83  H          0.72270000       0.45510000       0.46500000
    84  H          0.27730000       0.54490000       0.53500000
    85  N          0.41162000       0.20812000       0.95993860
    86  N          0.58838000       0.79188000       0.04006140
    87  O          0.31802000       0.39907140      -0.00306120
    88  O          0.68198000       0.60092860       0.00306120
    89  O          0.19168190       0.19482170       0.02488140
    90  O          0.80831810       0.80517830       0.97511860
    91  S          0.33352600       0.28358500       0.02742400
    92  S          0.66647400       0.71641500       0.97257600
    93  H          0.49730000       0.25920000       0.94748200
    94  H          0.50270000       0.74080000       0.05251800
    95  H          0.43040000       0.13120000       0.97580000
    96  H          0.56960000       0.86880000       0.02420000
    97  C          0.91192000       0.17758190       0.23668150
    98  C          0.08808000       0.82241810       0.76331850
    99  C          0.05983000       0.26262000       0.27958170
   100  C          0.94017000       0.73738000       0.72041830
   101  H          0.10670000       0.31420000       0.24630000
   102  H          0.89330000       0.68580000       0.75370000
   103  C          0.13593000       0.26952000       0.37161180
   104  C          0.86407000       0.73048000       0.62838820
   105  H          0.23530000       0.32580000       0.40000000
   106  H          0.76470000       0.67420000       0.60000000
   107  C          0.06853000       0.19493000       0.42309170
   108  C          0.93147000       0.80507000       0.57690830
   109  C          0.92113000       0.11283000       0.37950190
   110  C          0.07887000       0.88717000       0.62049810
   111  H          0.87350000       0.06290000       0.41350000
   112  H          0.12650000       0.93710000       0.58650000
   113  C          0.84203000       0.10222000       0.28708170
   114  C          0.15797000       0.89778000       0.71291830
   115  H          0.74290000       0.04540000       0.25890000
   116  H          0.25710000       0.95460000       0.74110000
   117  C          0.15574000       0.20284000       0.52442000
   118  C          0.84426000       0.79716000       0.47558000
   119  H          0.22080000       0.28770000       0.55210000
   120  H          0.77920000       0.71230000       0.44790000
   121  H          0.22190000       0.14300000       0.52800000
   122  H          0.77810000       0.85700000       0.47200000
   123  H          0.07950000       0.18260000       0.55720000
   124  H          0.92050000       0.81740000       0.44280000
   125  H          0.01020000       0.11330000       0.06581900
   126  H         -0.01020000       0.88670000       0.93418100
   127  H          0.88430000      -0.00611700       0.06001900
   128  H          0.11570000       0.00611700       0.93998100
   129  N          0.90313000       0.07872000       0.06070150
   130  N          0.09687000       0.92128000       0.93929850
   131  O          0.85322000       0.28670150       0.09832110
   132  O          0.14678000       0.71329850       0.90167890
   133  O          0.65671190       0.09276160       0.09500120
   134  O          0.34328810       0.90723840       0.90499880
   135  S          0.81858700       0.16264500       0.11774400
   136  S          0.18141300       0.83735500       0.88225600
