data_YIWHUI
_symmetry_space_group_name_H-M    'P1'
_symmetry_Int_Tables_number       1
loop_
_symmetry_equiv_pos_site_id
_symmetry_equiv_pos_as_xyz
1 x,y,z
_cell_length_a                   9.47805
_cell_length_b                   9.82216
_cell_length_c                   22.445212
_cell_angle_alpha                77.3524
_cell_angle_beta                 78.3164
_cell_angle_gamma                78.1232
loop_
_atom_site_label
_atom_site_type_symbol
_atom_site_fract_x
_atom_site_fract_y
_atom_site_fract_z
     1  P          0.79872000       0.46521190       0.14300700
     2  P          0.20128000       0.53478810       0.85699300
     3  O          0.81615000       0.54285000       0.39020180
     4  O          0.18385000       0.45715000       0.60979820
     5  O          0.52415000       0.41065000       0.18712000
     6  O          0.47585000       0.58935000       0.81288000
     7  O          0.72818000       0.73186000       0.24703000
     8  O          0.27182000       0.26814000       0.75297000
     9  C          0.80517000       0.38857000       0.32223000
    10  C          0.19483000       0.61143000       0.67777000
    11  C          0.03609000       0.26378000       0.42453000
    12  C          0.96391000       0.73622000       0.57547000
    13  C          0.79328000       0.23717000       0.33743000
    14  C          0.20672000       0.76283000       0.66257000
    15  C          0.87178000       0.28637000       0.42523000
    16  C          0.12822000       0.71363000       0.57477000
    17  C          0.57629000       0.43537000       0.23043000
    18  C          0.42371000       0.56463000       0.76957000
    19  C          0.72168000       0.45817000       0.22043000
    20  C          0.27832000       0.54183000       0.77957000
    21  C          0.82678000       0.17837000       0.39643000
    22  C          0.17322000       0.82163000       0.60357000
    23  C          0.69578000       0.59108000       0.08963000
    24  C          0.30422000       0.40892000       0.91037000
    25  C          0.82998000       0.42408000       0.37953000
    26  C          0.17002000       0.57592000       0.62047000
    27  C          0.84239000       0.29777000       0.11593000
    28  C          0.15761000       0.70223000       0.88407000
    29  C          0.10041000       0.36608000       0.43953000
    30  C          0.89959000       0.63392000       0.56047000
    31  C          0.78499000       0.29047000       0.49033000
    32  C          0.21501000       0.70953000       0.50967000
    33  C          0.78867000       0.48477000       0.26923000
    34  C          0.21133000       0.51523000       0.73077000
    35  C          0.84558000       0.25478000       0.54403000
    36  C          0.15442000       0.74522000       0.45597000
    37  C          0.07651000       0.43538000       0.16923000
    38  C          0.92349000       0.56462000       0.83077000
    39  C          0.13061000       0.14139000       0.41083000
    40  C          0.86939000       0.85861000       0.58917000
    41  C          0.97337000       0.51757000       0.13353000
    42  C          0.02663000       0.48243000       0.86647000
    43  C          0.77979000       0.95492000       0.38844000
    44  C          0.22021000       0.04508000       0.61156000
    45  C          0.75939000       0.14989000       0.30323000
    46  C          0.24061000       0.85011000       0.69677000
    47  C          0.81768000       0.03958000       0.42183000
    48  C          0.18232000       0.96042000       0.57817000
    49  C          0.82261000       0.63339000       0.26153000
    50  C          0.17739000       0.36661000       0.73847000
    51  C          0.27711100       0.12148000       0.41343000
    52  C          0.72288900       0.87852000       0.58657000
    53  C          0.75209000       0.00899000       0.32934000
    54  C          0.24791000      -0.00899000       0.67066000
    55  C          0.61859000       0.71748000       0.10753000
    56  C          0.38141000       0.28252000       0.89247000
    57  C          0.63321000       0.32138000       0.49793000
    58  C          0.36679000       0.67862000       0.50207000
    59  C          0.01511000       0.63358000       0.09083000
    60  C          0.98489000       0.36642000       0.90917000
    61  C          0.33549000       0.21951100       0.43073000
    62  C          0.66451000       0.78048900       0.56927000
    63  C          0.69049000       0.56818000       0.03163000
    64  C          0.30951000       0.43182000       0.96837000
    65  C          0.54009000       0.81778000       0.06734000
    66  C          0.45991000       0.18222000       0.93266000
    67  C          0.47479000       0.44209000       0.29123000
    68  C          0.52521000       0.55791000       0.70877000
    69  C          0.21221000       0.46851000       0.16194000
    70  C          0.78779000       0.53149000       0.83806000
    71  C          0.24591100       0.34321000       0.44273000
    72  C          0.75408900       0.65679000       0.55727000
    73  C          0.15281200       0.66499000       0.08464000
    74  C          0.84718800       0.33501000       0.91536000
    75  C          0.96801000       0.65809000       0.27033000
    76  C          0.03199000       0.34191000       0.72967000
    77  C          0.60891300       0.28189000       0.60724000
    78  C          0.39108700       0.71811000       0.39276000
    79  C          0.54509000       0.31798000       0.55494000
    80  C          0.45491000       0.68202000       0.44506000
    81  C          0.53651000       0.79231000       0.00974000
    82  C          0.46349000       0.20769000       0.99026000
    83  C          0.75651300       0.25159000       0.60193000
    84  C          0.24348700       0.74841000       0.39807000
    85  C          0.98091000       0.25111000       0.08734000
    86  C          0.01909000       0.74889000       0.91266000
    87  C          0.74041000       0.21111000       0.12404000
    88  C          0.25959000       0.78889000       0.87596000
    89  C          0.25189000       0.58331100       0.11985000
    90  C          0.74811000       0.41668900       0.88015000
    91  C          0.01991100       0.12291200       0.06884000
    92  C          0.98008900       0.87708800       0.93116000
    93  C          0.61051100       0.66781100       0.99207000
    94  C          0.38948900       0.33218900       0.00793000
    95  C          0.91651800       0.03571000       0.07875000
    96  C          0.08348200       0.96429000       0.92125000
    97  C          0.77781500       0.07961200       0.10645000
    98  C          0.22218500       0.92038800       0.89355000
    99  H          0.04038500       0.45359700       0.44757500
   100  H          0.95961500       0.54640300       0.55242500
   101  H          0.95018000       0.23423500       0.53973800
   102  H          0.04982000       0.76576500       0.46026200
   103  H          0.04856700       0.35547300       0.19929900
   104  H          0.95143300       0.64452700       0.80070100
   105  H          0.09214200       0.06878500       0.39978300
   106  H          0.90785800       0.93121500       0.60021700
   107  H          0.76901700       0.85927500       0.40732000
   108  H          0.23098300       0.14072500       0.59268000
   109  H          0.73886700       0.18906800       0.26213300
   110  H          0.26113300       0.81093200       0.73786700
   111  H          0.83989600       0.00287400       0.46277000
   112  H          0.16010400      -0.00287400       0.53723000
   113  H          0.34109000       0.03846100       0.40203100
   114  H          0.65891000       0.96153900       0.59796900
   115  H          0.73047800       0.94855300       0.30514800
   116  H          0.26952200       0.05144700       0.69485200
   117  H          0.62174900       0.73205500       0.14802300
   118  H          0.37825100       0.26794500       0.85197700
   119  H          0.58692300       0.34876100       0.46179100
   120  H          0.41307700       0.65123900       0.53820900
   121  H          0.94659000       0.69049400       0.06536100
   122  H          0.05341000       0.30950600       0.93463900
   123  H          0.43684900       0.20179200       0.43467000
   124  H          0.56315100       0.79820800       0.56533000
   125  H          0.74058500       0.48017800       0.01982100
   126  H          0.25941500       0.51982200       0.98017900
   127  H          0.48815800       0.90465600       0.07945800
   128  H          0.51184200       0.09534400       0.92054200
   129  H          0.52695600       0.46121200       0.32006200
   130  H          0.47304400       0.53878800       0.67993800
   131  H          0.44184200       0.35278500       0.30698400
   132  H          0.55815800       0.64721500       0.69301600
   133  H          0.39183000       0.51569500       0.28572000
   134  H          0.60817000       0.48430500       0.71428000
   135  H          0.28238400       0.41121000       0.18643400
   136  H          0.71761600       0.58879000       0.81356600
   137  H          0.28718700       0.41361600       0.45385300
   138  H          0.71281300       0.58638400       0.54614700
   139  H          0.18039800       0.74618200       0.05545200
   140  H          0.81960200       0.25381800       0.94454800
   141  H          0.02844100       0.56806200       0.28114000
   142  H          0.97155900       0.43193800       0.71886000
   143  H          0.95272300       0.71037400       0.30311200
   144  H          0.04727700       0.28962600       0.69688800
   145  H          0.01522200       0.71017800       0.23289400
   146  H          0.98477800       0.28982200       0.76710600
   147  H          0.54967000       0.27697300       0.64745800
   148  H          0.45033000       0.72302700       0.35254200
   149  H          0.44090900       0.34050300       0.55677200
   150  H          0.55909100       0.65949700       0.44322800
   151  H          0.48062600       0.86138600       0.98221300
   152  H          0.51937400       0.13861400       0.01778700
   153  H          0.79869200       0.22678100       0.63907100
   154  H          0.20130800       0.77321900       0.36092900
   155  H          0.05273500       0.31171500       0.07941500
   156  H          0.94726500       0.68828500       0.92058500
   157  H          0.64162100       0.24460200       0.14161000
   158  H          0.35837900       0.75539800       0.85839000
   159  H          0.34793900       0.60573000       0.11465400
   160  H          0.65206100       0.39427000       0.88534600
   161  H          0.11803000       0.09475600       0.04890200
   162  H          0.88197000       0.90524400       0.95109800
   163  H          0.60814100       0.65336700       0.95140100
   164  H          0.39185900       0.34663300       0.04859900
   165  H          0.94212600       0.94391100       0.06733200
   166  H          0.05787400       0.05608900       0.93266800
   167  H          0.70475500       0.02052200       0.11349000
   168  H          0.29524500       0.97947800       0.88651000
   169  O          0.35991100       0.08359000       0.14864000
   170  O          0.64008900       0.91641000       0.85136000
   171  C          0.32041800       0.03271400       0.20295000
   172  C          0.67958200       0.96728600       0.79705000
   173  C          0.40220000       0.05091700       0.24566000
   174  C          0.59780000       0.94908300       0.75434000
   175  C          0.20930000       0.95570000       0.22308000
   176  C          0.79070000       0.04430000       0.77692000
   177  H          0.36497700       0.00806100       0.28709700
   178  H          0.63502300      -0.00806100       0.71290300
   179  H          0.39604800       0.15051800       0.24341700
   180  H          0.60395200       0.84948200       0.75658300
   181  H          0.50145500       0.00836800       0.23428300
   182  H          0.49854500      -0.00836800       0.76571700
   183  H          0.19794200       0.92810600       0.26723300
   184  H          0.80205800       0.07189400       0.73276700
   185  H          0.23350300       0.87249500       0.20458900
   186  H          0.76649700       0.12750500       0.79541100
   187  H          0.11885100       0.01033500       0.21167000
   188  H          0.88114900      -0.01033500       0.78833000
