data_YIYMIG
_symmetry_space_group_name_H-M    'P1'
_symmetry_Int_Tables_number       1
loop_
_symmetry_equiv_pos_site_id
_symmetry_equiv_pos_as_xyz
1 x,y,z
_cell_length_a                   9.57114
_cell_length_b                   37.874114
_cell_length_c                   7.84203
_cell_angle_alpha                90.0
_cell_angle_beta                 101.8904
_cell_angle_gamma                90.0
loop_
_atom_site_label
_atom_site_type_symbol
_atom_site_fract_x
_atom_site_fract_y
_atom_site_fract_z
     1  Cl         0.36095400       0.71662200       0.49574500
     2  Cl         0.63904600       0.21662200       0.00425500
     3  Cl         0.63904600       0.28337800       0.50425500
     4  Cl         0.36095400       0.78337800      -0.00425500
     5  F          0.11131120       0.27781300       0.35261150
     6  F          0.88868880       0.77781300       0.14738850
     7  F          0.88868880       0.72218700       0.64738850
     8  F          0.11131120       0.22218700       0.85261150
     9  O          0.52896120       0.66300300       0.26360150
    10  O          0.47103880       0.16300300       0.23639850
    11  O          0.47103880       0.33699700       0.73639850
    12  O          0.52896120       0.83699700       0.76360150
    13  O          0.36656120       0.51964300       0.13732150
    14  O          0.63343880       0.01964300       0.36267850
    15  O          0.63343880       0.48035700       0.86267850
    16  O          0.36656120       0.98035700       0.63732150
    17  O          0.29110140       0.65801300       0.73741150
    18  O          0.70889860       0.15801300       0.76258850
    19  O          0.70889860       0.34198700       0.26258850
    20  O          0.29110140       0.84198700       0.23741150
    21  O          0.54786130       0.61665300       0.09069160
    22  O          0.45213870       0.11665300       0.40930840
    23  O          0.45213870       0.38334700       0.90930840
    24  O          0.54786130       0.88334700       0.59069160
    25  O          0.19771150       0.60899300       0.83246160
    26  O          0.80228850       0.10899300       0.66753840
    27  O          0.80228850       0.39100700       0.16753840
    28  O          0.19771150       0.89100700       0.33246160
    29  N          0.29609140       0.41547300       0.33381170
    30  N          0.70390860       0.91547300       0.16618830
    31  N          0.70390860       0.58452700       0.66618830
    32  N          0.29609140       0.08452700       0.83381170
    33  N          0.29365140       0.55936300       0.37772170
    34  N          0.70634860       0.05936300       0.12227830
    35  N          0.70634860       0.44063700       0.62227830
    36  N          0.29365140       0.94063700       0.87772170
    37  H          0.26301000       0.53803900       0.34451900
    38  H          0.73699000       0.03803900       0.15548100
    39  H          0.73699000       0.46196100       0.65548100
    40  H          0.26301000       0.96196100       0.84451900
    41  N          0.30962160       0.47018400       0.40500190
    42  N          0.69037840       0.97018400       0.09499810
    43  N          0.69037840       0.52981600       0.59499810
    44  N          0.30962160       0.02981600       0.90500190
    45  N          0.25081160       0.44028400       0.43514190
    46  N          0.74918840       0.94028400       0.06485810
    47  N          0.74918840       0.55971600       0.56485810
    48  N          0.25081160       0.05971600       0.93514190
    49  C          0.22752160       0.65672400       0.34430190
    50  C          0.77247840       0.15672400       0.15569810
    51  C          0.77247840       0.34327600       0.65569810
    52  C          0.22752160       0.84327600       0.84430190
    53  C          0.39278170       0.46489400       0.28472000
    54  C          0.60721830       0.96489400       0.21528000
    55  C          0.60721830       0.53510600       0.71528000
    56  C          0.39278170       0.03510600       0.78472000
    57  C          0.41160160       0.61128400       0.31422000
    58  C          0.58839840       0.11128400       0.18578000
    59  C          0.58839840       0.38871600       0.68578000
    60  C          0.41160160       0.88871600       0.81422000
    61  C          0.22494170       0.69348400       0.35752000
    62  C          0.77505830       0.19348400       0.14248000
    63  C          0.77505830       0.30651600       0.64248000
    64  C          0.22494170       0.80651600       0.85752000
    65  C          0.24927170       0.37983400       0.33912000
    66  C          0.75072830       0.87983400       0.16088000
    67  C          0.75072830       0.62016600       0.66088000
    68  C          0.24927170       0.12016600       0.83912000
    69  C          0.38388170       0.43007400       0.23712000
    70  C          0.61611830       0.93007400       0.26288000
    71  C          0.61611830       0.56992600       0.76288000
    72  C          0.38388170       0.06992600       0.73712000
    73  H          0.42892200       0.41865500       0.15492000
    74  H          0.57107800       0.91865500       0.34508000
    75  H          0.57107800       0.58134500       0.84508000
    76  H          0.42892200       0.08134500       0.65492000
    77  C          0.37722160       0.57691400       0.28182000
    78  C          0.62277840       0.07691400       0.21818000
    79  C          0.62277840       0.42308600       0.71818000
    80  C          0.37722160       0.92308600       0.78182000
    81  C          0.50201170       0.62925400       0.21172000
    82  C          0.49798830       0.12925400       0.28828000
    83  C          0.49798830       0.37074600       0.78828000
    84  C          0.50201170       0.87074600       0.71172000
    85  C          0.31381170       0.35343400       0.25832000
    86  C          0.68618830       0.85343400       0.24168000
    87  C          0.68618830       0.64656600       0.74168000
    88  C          0.31381170       0.14656600       0.75832000
    89  H          0.38887400       0.35905300       0.20038800
    90  H          0.61112600       0.85905300       0.29961200
    91  H          0.61112600       0.64094700       0.79961200
    92  H          0.38887400       0.14094700       0.70038800
    93  C          0.34678170       0.63277400       0.44362000
    94  C          0.65321830       0.13277400       0.05638000
    95  C          0.65321830       0.36722600       0.55638000
    96  C          0.34678170       0.86722600       0.94362000
    97  C          0.25228170       0.62356400       0.72452000
    98  C          0.74771830       0.12356400       0.77548000
    99  C          0.74771830       0.37643600       0.27548000
   100  C          0.25228170       0.87643600       0.22452000
   101  C          0.28622170       0.60803400       0.56512000
   102  C          0.71377830       0.10803400       0.93488000
   103  C          0.71377830       0.39196600       0.43488000
   104  C          0.28622170       0.89196600       0.06512000
   105  C          0.11319170       0.64094400       0.22962000
   106  C          0.88680830       0.14094400       0.27038000
   107  C          0.88680830       0.35905600       0.77038000
   108  C          0.11319170       0.85905600       0.72962000
   109  H          0.11126900       0.61597200       0.21803600
   110  H          0.88873100       0.11597200       0.28196400
   111  H          0.88873100       0.38402800       0.78196400
   112  H          0.11126900       0.88402800       0.71803600
   113  C          0.15826180       0.31162400       0.34872000
   114  C          0.84173820       0.81162400       0.15128000
   115  C          0.84173820       0.68837600       0.65128000
   116  C          0.15826180       0.18837600       0.84872000
   117  C          0.25556170       0.57373400       0.52412000
   118  C          0.74443830       0.07373400       0.97588000
   119  C          0.74443830       0.42626600       0.47588000
   120  C          0.25556170       0.92626600       0.02412000
   121  C          0.11471190       0.71363400       0.26102000
   122  C          0.88528810       0.21363400       0.23898000
   123  C          0.88528810       0.28636600       0.73898000
   124  C          0.11471190       0.78636600       0.76102000
   125  H          0.11587500       0.73860900       0.27245800
   126  H          0.88412500       0.23860900       0.22754200
   127  H          0.88412500       0.26139100       0.72754200
   128  H          0.11587500       0.76139100       0.77245800
   129  C          0.26712180       0.31886400       0.26362000
   130  C          0.73287820       0.81886400       0.23638000
   131  C          0.73287820       0.68113600       0.73638000
   132  C          0.26712180       0.18113600       0.76362000
   133  H          0.30963600       0.30048200       0.20939300
   134  H          0.69036400       0.80048200       0.29060700
   135  H          0.69036400       0.69951800       0.79060700
   136  H          0.30963600       0.19951800       0.70939300
   137  C          0.00240180       0.66061400       0.13222000
   138  C         -0.00240180       0.16061400       0.36778000
   139  C         -0.00240180       0.33938600       0.86778000
   140  C          0.00240180       0.83938600       0.63222000
   141  H          0.92634300       0.64917400       0.05496300
   142  H          0.07365700       0.14917400       0.44503700
   143  H          0.07365700       0.35082600       0.94503700
   144  H          0.92634300       0.85082600       0.55496300
   145  C          0.47107170       0.49516400       0.22672000
   146  C          0.52892830       0.99516400       0.27328000
   147  C          0.52892830       0.50483600       0.77328000
   148  C          0.47107170       0.00483600       0.72672000
   149  H          0.53230300       0.50672000       0.32856000
   150  H          0.46769700       0.00672000       0.17144000
   151  H          0.46769700       0.49328000       0.67144000
   152  H          0.53230300       0.99328000       0.82856000
   153  H          0.53250900       0.48678300       0.14775500
   154  H          0.46749100       0.98678300       0.35224500
   155  H          0.46749100       0.51321700       0.85224500
   156  H          0.53250900       0.01321700       0.64775500
   157  C          0.41897180       0.55490400       0.13742000
   158  C          0.58102820       0.05490400       0.36258000
   159  C          0.58102820       0.44509600       0.86258000
   160  C          0.41897180       0.94509600       0.63742000
   161  H          0.37994200       0.56602500       0.02327700
   162  H          0.62005800       0.06602500       0.47672300
   163  H          0.62005800       0.43397500       0.97672300
   164  H          0.37994200       0.93397500       0.52327700
   165  H          0.52429800       0.55440200       0.15357300
   166  H          0.47570200       0.05440200       0.34642700
   167  H          0.47570200       0.44559800       0.84642700
   168  H          0.52429800       0.94559800       0.65357300
   169  C          0.18183190       0.54800400       0.62252000
   170  C          0.81816810       0.04800400       0.87748000
   171  C          0.81816810       0.45199600       0.37748000
   172  C          0.18183190       0.95199600       0.12252000
   173  H          0.17365900       0.52503900       0.56367300
   174  H          0.82634100       0.02503900       0.93632700
   175  H          0.82634100       0.47496100       0.43632700
   176  H          0.17365900       0.97496100       0.06367300
   177  H          0.23754900       0.54536700       0.74155400
   178  H          0.76245100       0.04536700       0.75844600
   179  H          0.76245100       0.45463300       0.25844600
   180  H          0.23754900       0.95463300       0.24155400
   181  H          0.08630700       0.55684000       0.62639800
   182  H          0.91369300       0.05684000       0.87360200
   183  H          0.91369300       0.44316000       0.37360200
   184  H          0.08630700       0.94316000       0.12639800
   185  C          0.13973190       0.37191400       0.42582000
   186  C          0.86026810       0.87191400       0.07418000
   187  C          0.86026810       0.62808600       0.57418000
   188  C          0.13973190       0.12808600       0.92582000
   189  H          0.09705000       0.39011400       0.48099100
   190  H          0.90295000       0.89011400       0.01900900
   191  H          0.90295000       0.60988600       0.51900900
   192  H          0.09705000       0.10988600       0.98099100
   193  C          0.00371180       0.69721500       0.14862000
   194  C         -0.00371180       0.19721500       0.35138000
   195  C         -0.00371180       0.30278500       0.85138000
   196  C          0.00371180       0.80278500       0.64862000
   197  H          0.92834500       0.71087500       0.08249100
   198  H          0.07165500       0.21087500       0.41750900
   199  H          0.07165500       0.28912500       0.91750900
   200  H          0.92834500       0.78912500       0.58249100
   201  C          0.09349190       0.33731400       0.43102000
   202  C          0.90650810       0.83731400       0.06898000
   203  C          0.90650810       0.66268600       0.56898000
   204  C          0.09349190       0.16268600       0.93102000
   205  H          0.01916900       0.33139300       0.48961700
   206  H          0.98083100       0.83139300       0.01038300
   207  H          0.98083100       0.66860700       0.51038300
   208  H          0.01916900       0.16860700      -0.01038300
   209  C          0.61432190       0.68279400       0.16412000
   210  C          0.38567810       0.18279400       0.33588000
   211  C          0.38567810       0.31720600       0.83588000
   212  C          0.61432190       0.81720600       0.66412000
   213  H          0.56962700       0.68199800       0.03853900
   214  H          0.43037300       0.18199800       0.46146100
   215  H          0.43037300       0.31800200       0.96146100
   216  H          0.56962700       0.81800200       0.53853900
   217  H          0.71117400       0.67245900       0.18022300
   218  H          0.28882600       0.17245900       0.31977700
   219  H          0.28882600       0.32754100       0.81977700
   220  H          0.71117400       0.82754100       0.68022300
   221  C          0.62322000       0.72029400       0.22813000
   222  C          0.37678000       0.22029400       0.27187000
   223  C          0.37678000       0.27970600       0.77187000
   224  C          0.62322000       0.77970600       0.72813000
   225  H          0.68054000       0.73423000       0.16264100
   226  H          0.31946000       0.23423000       0.33735900
   227  H          0.31946000       0.26577000       0.83735900
   228  H          0.68054000       0.76577000       0.66264100
   229  H          0.52687000       0.73029100       0.21117900
   230  H          0.47313000       0.23029100       0.28882100
   231  H          0.47313000       0.26970900       0.78882100
   232  H          0.52687000       0.76970900       0.71117900
   233  H          0.66789200       0.72078700       0.35233800
   234  H          0.33210800       0.22078700       0.14766200
   235  H          0.33210800       0.27921300       0.64766200
   236  H          0.66789200       0.77921300       0.85233800
   237  C          0.25202000       0.67762500       0.87762000
   238  C          0.74798000       0.17762500       0.62238000
   239  C          0.74798000       0.32237500       0.12238000
   240  C          0.25202000       0.82237500       0.37762000
   241  H          0.28511500       0.70205900       0.87467500
   242  H          0.71488500       0.20205900       0.62532500
   243  H          0.71488500       0.29794100       0.12532500
   244  H          0.28511500       0.79794100       0.37467500
   245  H          0.14795600       0.67736800       0.86452700
   246  H          0.85204400       0.17736800       0.63547300
   247  H          0.85204400       0.32263200       0.13547300
   248  H          0.14795600       0.82263200       0.36452700
   249  H          0.29635700       0.66680400      -0.01080900
   250  H          0.70364300       0.16680400       0.51080900
   251  H          0.70364300       0.33319600       0.01080900
   252  H          0.29635700       0.83319600       0.48919100
   253  C          0.02962000       0.49117500       0.93038000
   254  C          0.97038000       0.99117500       0.56962000
   255  C          0.97038000       0.50882500       0.06962000
   256  C          0.02962000       0.00882500       0.43038000
   257  H          0.12429700       0.50146300       0.92791500
   258  H          0.87570300       0.00146300       0.57208500
   259  H          0.87570300       0.49853700       0.07208500
   260  H          0.12429700      -0.00146300       0.42791500
   261  H          0.96605100       0.49590500       0.81615900
   262  H          0.03394900       0.99590500       0.68384100
   263  H          0.03394900       0.50409500       0.18384100
   264  H          0.96605100       0.00409500       0.31615900
   265  C          0.04532000       0.45178600       0.95617000
   266  C          0.95468000       0.95178600       0.54383000
   267  C          0.95468000       0.54821400       0.04383000
   268  C          0.04532000       0.04821400       0.45617000
   269  H          0.94970000       0.44085400       0.94303500
   270  H          0.05030000       0.94085400       0.55696500
   271  H          0.05030000       0.55914600       0.05696500
   272  H          0.94970000       0.05914600       0.44303500
   273  H          0.09947500       0.44675000       0.07545800
   274  H          0.90052500       0.94675000       0.42454200
   275  H          0.90052500       0.55325000       0.92454200
   276  H          0.09947500       0.05325000       0.57545800
   277  C          0.12373000       0.43576800       0.82236000
   278  C          0.87627000       0.93576800       0.67764000
   279  C          0.87627000       0.56423200       0.17764000
   280  C          0.12373000       0.06423200       0.32236000
   281  H          0.06113400       0.43634700       0.70651700
   282  H          0.93886600       0.93634700       0.79348300
   283  H          0.93886600       0.56365300       0.29348300
   284  H          0.06113400       0.06365300       0.20651700
   285  H          0.14973800       0.41126200       0.85437300
   286  H          0.85026200       0.91126200       0.64562700
   287  H          0.85026200       0.58873800       0.14562700
   288  H          0.14973800       0.08873800       0.35437300
   289  H          0.21031100       0.44945700       0.82080100
   290  H          0.78968900       0.94945700       0.67919900
   291  H          0.78968900       0.55054300       0.17919900
   292  H          0.21031100       0.05054300       0.32080100
