data_YIZCUG
_symmetry_space_group_name_H-M    'P1'
_symmetry_Int_Tables_number       1
loop_
_symmetry_equiv_pos_site_id
_symmetry_equiv_pos_as_xyz
1 x,y,z
_cell_length_a                   4.45977
_cell_length_b                   12.550819
_cell_length_c                   13.7272
_cell_angle_alpha                90.7512
_cell_angle_beta                 96.2302
_cell_angle_gamma                97.8653
loop_
_atom_site_label
_atom_site_type_symbol
_atom_site_fract_x
_atom_site_fract_y
_atom_site_fract_z
     1  Br         0.51293110       0.94670400       0.61909300
     2  Br         0.48706890       0.05329600       0.38090700
     3  C          0.70678000       0.90663000       0.74032000
     4  C          0.29322000       0.09337000       0.25968000
     5  C          0.93579000       0.97733000       0.79073000
     6  C          0.06421000       0.02267000       0.20927000
     7  H         -0.00430000       0.04460000       0.76590000
     8  H          0.00430000       0.95540000       0.23410000
     9  C          0.07359000       0.94703000       0.87793000
    10  C          0.92641000       0.05297000       0.12207000
    11  H          0.22920000      -0.00550000       0.91200000
    12  H          0.77080000       0.00550000       0.08800000
    13  C         -0.01322000       0.84683000       0.91722000
    14  C          0.01322000       0.15317000       0.08278000
    15  C          0.75619000       0.77783000       0.86453000
    16  C          0.24381000       0.22217000       0.13547000
    17  H          0.69370000       0.71060000       0.88900000
    18  H          0.30630000       0.28940000       0.11100000
    19  C          0.61629000       0.80723000       0.77563000
    20  C          0.38371000       0.19277000       0.22437000
    21  H          0.46270000       0.75980000       0.74030000
    22  H          0.53730000       0.24020000       0.25970000
    23  C          0.14328000       0.82213000       0.01103000
    24  C          0.85672000       0.17787000       0.98897000
    25  H          0.29900000       0.87530000       0.03650000
    26  H          0.70100000       0.12470000       0.96350000
    27  C          0.10137000       0.73573000       0.06722000
    28  C          0.89863000       0.26427000       0.93278000
    29  C         -0.03192000       0.56913000       0.16262000
    30  C          0.03192000       0.43087000       0.83738000
    31  C          0.28768000       0.73293000       0.16362000
    32  C          0.71232000       0.26707000       0.83638000
    33  N          0.19497000       0.63942000       0.21012000
    34  N          0.80503000       0.36058000       0.78988000
    35  O          0.49007000       0.80182000       0.19712000
    36  O          0.50993000       0.19818000       0.80288000
    37  S          0.84502000       0.61769700       0.04860600
    38  S          0.15498000       0.38230300       0.95139400
    39  S          0.82223000       0.45325900       0.20100800
    40  S          0.17777000       0.54674100       0.79899200
    41  H          0.27490000       0.62430000       0.26671800
    42  H          0.72510000       0.37570000       0.73328200
    43  C          0.87731000       0.63414000       0.55143000
    44  C          0.12269000       0.36586000       0.44857000
    45  H          0.77260000       0.68300000       0.58480000
    46  H          0.22740000       0.31700000       0.41520000
    47  H          0.09280000       0.65170000       0.56920000
    48  H          0.90720000       0.34830000       0.43080000
    49  H          0.81180000       0.56180000       0.56980000
    50  H          0.18820000       0.43820000       0.43020000
    51  C          0.92091000       0.78573000       0.41473000
    52  C          0.07909000       0.21427000       0.58527000
    53  H          0.86400000       0.80840000       0.34960000
    54  H          0.13600000       0.19160000       0.65040000
    55  H          0.13840000       0.79900000       0.42920000
    56  H          0.86160000       0.20100000       0.57080000
    57  H          0.82860000       0.82510000       0.46100000
    58  H          0.17140000       0.17490000       0.53900000
    59  O          0.45296000       0.63202000       0.40412000
    60  O          0.54704000       0.36798000       0.59588000
    61  S          0.79367190       0.64511800       0.42291700
    62  S          0.20632810       0.35488200       0.57708300
