data_YOBTIW
_symmetry_space_group_name_H-M    'P1'
_symmetry_Int_Tables_number       1
loop_
_symmetry_equiv_pos_site_id
_symmetry_equiv_pos_as_xyz
1 x,y,z
_cell_length_a                   10.25222
_cell_length_b                   10.76384
_cell_length_c                   11.05284
_cell_angle_alpha                112.3644
_cell_angle_beta                 105.7112
_cell_angle_gamma                96.3572
loop_
_atom_site_label
_atom_site_type_symbol
_atom_site_fract_x
_atom_site_fract_y
_atom_site_fract_z
     1  C          0.10304000       0.21584000       0.70224000
     2  C          0.89696000       0.78416000       0.29776000
     3  C          0.00104000       0.17814000       0.57525000
     4  C         -0.00104000       0.82186000       0.42475000
     5  C          0.85925000       0.14105000       0.55516000
     6  C          0.14075000       0.85895000       0.44484000
     7  H          0.79154500       0.11865700       0.46977600
     8  H          0.20845500       0.88134300       0.53022400
     9  C          0.82295000       0.13865000       0.66516000
    10  C          0.17705000       0.86135000       0.33484000
    11  C          0.91895000       0.17415000       0.79186000
    12  C          0.08105000       0.82585000       0.20814000
    13  H          0.89199500       0.17236800       0.86502800
    14  H          0.10800500       0.82763200       0.13497200
    15  C          0.06004000       0.21364000       0.80915000
    16  C          0.93996000       0.78636000       0.19085000
    17  H          0.12689100       0.23916100       0.89578000
    18  H          0.87310900       0.76083900       0.10422000
    19  C          0.25753000       0.25804000       0.72554000
    20  C          0.74247000       0.74196000       0.27446000
    21  H          0.27893100       0.19120000       0.64851300
    22  H          0.72106900       0.80880000       0.35148700
    23  C          0.29933000       0.40214000       0.73424000
    24  C          0.70067000       0.59786000       0.26576000
    25  H          0.23168500       0.41181100       0.65982900
    26  H          0.76831500       0.58818900       0.34017100
    27  H          0.29994500       0.47088500       0.82218200
    28  H          0.70005500       0.52911500       0.17781800
    29  C          0.56004000       0.46415000       0.82244000
    30  C          0.43996000       0.53585000       0.17756000
    31  H          0.57279800       0.48750500       0.91567100
    32  H          0.42720200       0.51249500       0.08432900
    33  C          0.60265000       0.42526000       0.63245000
    34  C          0.39735000       0.57474000       0.36755000
    35  H          0.64991300       0.41645800       0.56979900
    36  H          0.35008700       0.58354200       0.43020100
    37  C          0.46404000       0.40086000       0.60225000
    38  C          0.53596000       0.59914000       0.39775000
    39  H          0.39739300       0.37229000       0.51472800
    40  H          0.60260700       0.62771000       0.48527200
    41  C          0.36064000       0.13164000       0.84875000
    42  C          0.63936000       0.86836000       0.15125000
    43  H          0.40826500       0.08972000       0.78433700
    44  H          0.59173500       0.91028000       0.21566300
    45  H          0.27047000       0.06965900       0.81936000
    46  H          0.72953000       0.93034100       0.18064000
    47  C          0.39626000       0.14426000       0.09016000
    48  C          0.60374000       0.85574000       0.90984000
    49  C          0.44515000       0.15914000      -0.00735000
    50  C          0.55485000       0.84086000       0.00735000
    51  C          0.59165000       0.21465000       0.05086000
    52  C          0.40835000       0.78535000       0.94914000
    53  H          0.64547000       0.23273800       0.00120800
    54  H          0.35453000       0.76726200      -0.00120800
    55  C          0.64466000       0.23846000       0.18586000
    56  C          0.35534000       0.76154000       0.81414000
    57  H          0.73893600       0.27448600       0.23862800
    58  H          0.26106400       0.72551400       0.76137200
    59  N          0.43823000       0.42543000       0.72283000
    60  N          0.56177000       0.57457000       0.27717000
    61  N          0.66063000       0.46464000       0.76984000
    62  N          0.33937000       0.53536000       0.23016000
    63  O          0.34382000       0.26373000       0.85263000
    64  O          0.65618000       0.73627000       0.14737000
    65  S          0.52282000       0.19614180       0.24859150
    66  S          0.47718000       0.80385820       0.75140850
    67  Cl         0.04498150       0.17535130       0.43310120
    68  Cl         0.95501850       0.82464870       0.56689880
    69  Cl         0.64704860       0.08622000       0.63863000
    70  Cl         0.35295140       0.91378000       0.36137000
    71  Cl         0.22562000       0.07993000       0.06593000
    72  Cl         0.77438000       0.92007000       0.93407000
    73  H          0.75480000       0.47280000       0.81890000
    74  H          0.24520000       0.52720000       0.18110000
    75  C          0.96143000       0.50074000       0.55164000
    76  C          0.03857000       0.49926000       0.44836000
    77  O          0.83673000       0.46294000       0.51173000
    78  O          0.16327000       0.53706000       0.48827000
    79  O          0.04573000       0.54464000       0.67663000
    80  O          0.95427000       0.45536000       0.32337000
    81  H          0.00180000       0.53480000       0.72180000
    82  H         -0.00180000       0.46520000       0.27820000
    83  H         -0.00020000       0.46680000       0.27980000
    84  H          0.00020000       0.53320000       0.72020000
    85  C          0.03343000       0.52074000       0.95283000
    86  C          0.96657000       0.47926000       0.04717000
    87  O          0.94462000       0.52963000       0.85153000
    88  O          0.05538000       0.47037000       0.14847000
    89  O          0.15932000       0.54303000       0.98023000
    90  O          0.84068000       0.45697000       0.01977000
