data_YOBTAO
_symmetry_space_group_name_H-M    'P1'
_symmetry_Int_Tables_number       1
loop_
_symmetry_equiv_pos_site_id
_symmetry_equiv_pos_as_xyz
1 x,y,z
_cell_length_a                   7.55632
_cell_length_b                   8.30222
_cell_length_c                   20.65935
_cell_angle_alpha                83.7322
_cell_angle_beta                 82.5282
_cell_angle_gamma                89.7142
loop_
_atom_site_label
_atom_site_type_symbol
_atom_site_fract_x
_atom_site_fract_y
_atom_site_fract_z
     1  C          0.73936000       0.43616000       0.71862000
     2  C          0.63216000       0.49036000       0.67002000
     3  C          0.56846000       0.38836000       0.62962000
     4  H          0.49475200       0.42774100       0.59751100
     5  C          0.61526000       0.22786000       0.63722000
     6  C          0.72587000       0.16826000       0.68272000
     7  H          0.76010200       0.05766500       0.68596400
     8  C          0.78507000       0.27266000       0.72322000
     9  H          0.85897100       0.23198400       0.75496100
    10  C          0.79806000       0.54976000       0.76462000
    11  H          0.83505400       0.65603400       0.73898000
    12  C          0.64316000       0.57646000       0.81782000
    13  H          0.53201300       0.59494700       0.79753700
    14  H          0.62543900       0.47817100       0.84982000
    15  C          0.75026000       0.70766000       0.90822000
    16  H          0.78333600       0.61132100       0.93280500
    17  C          0.70657000       0.96516000       0.87592000
    18  H          0.70470700       0.07975300       0.87484300
    19  C          0.65106000       0.87676000       0.83122000
    20  H          0.60189900       0.91749400       0.79270200
    21  C          0.11636000       0.53406000       0.76152000
    22  H          0.11683600       0.52877100       0.71385100
    23  H          0.20873400       0.45970400       0.77690300
    24  C          0.16116000       0.83996000       0.73002000
    25  C          0.15656000       0.70516000       0.77412000
    26  C          0.18887000       0.74717000       0.83712000
    27  H          0.19126800       0.66998800       0.87446700
    28  C          0.21547000       0.90747000       0.83783000
    29  H          0.23776400       0.95532400       0.87570400
    30  N          0.67905000       0.71585000       0.85200180
    31  N          0.76645000       0.85635000       0.92366190
    32  O          0.94214000       0.48534000       0.79646150
    33  S          0.20425160       0.01520140       0.76279600
    34  Cl         0.57884150       0.69531130       0.65846600
    35  Cl         0.53563170       0.09527150       0.58732600
    36  Cl         0.12183150       0.84828140       0.64932500
    37  H          0.81510000       0.87390000       0.95640000
    38  C          0.86116000       0.17036000       0.43712000
    39  C          0.97196000       0.11416000       0.48382000
    40  C          0.03877000       0.21526000       0.52422000
    41  H          0.11490200       0.17472400       0.55522900
    42  C         -0.00843000       0.37576000       0.51802000
    43  C          0.87677000       0.43676000       0.47452000
    44  H          0.84137100       0.54689600       0.47245800
    45  C          0.81407000       0.33296000       0.43362000
    46  H          0.73751700       0.37414700       0.40282800
    47  C          0.79796000       0.05856000       0.39112000
    48  H          0.76336000       0.95097600       0.41622800
    49  C          0.94936000       0.03546000       0.33602000
    50  H          0.96810700       0.13664200       0.30582400
    51  H          0.06132000       0.01041700       0.35498700
    52  C          0.83596000       0.92106000       0.24362000
    53  H          0.81754600       0.02081900       0.21826300
    54  C          0.84327000       0.66036000       0.27652000
    55  H          0.83142600       0.54608100       0.27763600
    56  C          0.90867000       0.74096000       0.32222000
    57  H          0.94918500       0.69451500       0.36170500
    58  C          0.47886000       0.06426000       0.39432000
    59  H          0.38405300       0.13806400       0.38055400
    60  H          0.47717800       0.06332900       0.44234600
    61  C          0.44176000       0.75836000       0.42122000
    62  C          0.44136000       0.89736000       0.37882000
    63  C          0.39736000       0.86016000       0.31662000
    64  H          0.38950200       0.94024900       0.28057700
    65  C          0.36807000       0.70047000       0.31392000
    66  H          0.33831600       0.65617000       0.27614500
    67  N          0.90445000       0.90365000       0.29997180
    68  N          0.79735000       0.77425000       0.22859190
    69  O          0.65064000       0.12344000       0.36119140
    70  S          0.39121160       0.58638150       0.38758600
    71  Cl         0.02838150       0.90946130       0.49314500
    72  Cl         0.07439170       0.50477150       0.56844600
    73  Cl         0.48965150       0.74386140       0.50128500
    74  H          0.76680000       0.75380000       0.18730000
    75  C          0.52946000       0.73945000       0.08152000
    76  C          0.37406000       0.82896000       0.05502000
    77  H          0.37095100       0.80852500       0.00830000
    78  C          0.19946000       0.76486000       0.09752000
    79  H          0.19169300       0.64563200       0.09452100
    80  C          0.04546000       0.84446000       0.06592000
    81  O          0.56204000       0.60164000       0.05903150
    82  O          0.61254000       0.79714000       0.12111170
    83  O          0.38425000      -0.00416000       0.05888190
    84  H          0.48928200       0.02863800       0.04626500
    85  O          0.19884000       0.78704000       0.16362140
    86  H          0.19701200       0.88655000       0.16774200
    87  O          0.00325000       0.79874000       0.01500160
    88  O          0.97036000       0.96504000       0.09424150
    89  H          0.90490700       0.01559000       0.06920000
    90  H          0.66510000       0.54690000       0.07640000
    91  C          0.74376000       0.38545000       0.17222000
    92  C          0.54335000       0.37255000       0.19437190
    93  H          0.48811300       0.47896200       0.18153300
    94  C          0.46645000       0.24285000       0.15762000
    95  H          0.48985700       0.27551600       0.10917600
    96  C          0.26626000       0.22705000       0.17882000
    97  O          0.84614000       0.32544000       0.21125150
    98  O          0.79554000       0.45434000       0.11452150
    99  O          0.50414000       0.33514000       0.26325140
   100  H          0.58564500       0.27756800       0.27728000
   101  O          0.55714000       0.09854000       0.17333150
   102  H          0.53798000       0.03108800       0.14748900
   103  O          0.18204000       0.36244000       0.16658180
   104  H          0.07228800       0.34808200       0.17898700
   105  O          0.19404000       0.09924000       0.20408150
   106  C          0.29056000       0.27615000       0.92932000
   107  C          0.09826000       0.21556000       0.94332000
   108  H          0.10206100       0.10060600       0.96338500
   109  C         -0.01246000       0.30866000      -0.00598000
   110  H          0.02894500       0.28426300       0.03803000
   111  C          0.79325000       0.25445000      -0.00345810
   112  O          0.35645000       0.30586000       0.98274180
   113  H          0.46836600       0.30984900       0.97512600
   114  O          0.37035000       0.29456000       0.87448180
   115  O          0.01794000       0.21275000       0.88557150
   116  O          0.01184000       0.47554000       0.97124160
   117  H          0.01244100       0.52894400       0.00345700
   118  O          0.75046000       0.11264000       0.02345150
   119  O          0.69076000       0.35044000       0.96941160
   120  H          0.01611000       0.29510000       0.87640000
