data_YOBVAQ01
_symmetry_space_group_name_H-M    'P1'
_symmetry_Int_Tables_number       1
loop_
_symmetry_equiv_pos_site_id
_symmetry_equiv_pos_as_xyz
1 x,y,z
_cell_length_a                   7.48802
_cell_length_b                   11.38434
_cell_length_c                   13.02804
_cell_angle_alpha                83.1113
_cell_angle_beta                 83.1023
_cell_angle_gamma                75.1163
loop_
_atom_site_label
_atom_site_type_symbol
_atom_site_fract_x
_atom_site_fract_y
_atom_site_fract_z
     1  C          0.48346000       0.20842000       0.35422180
     2  C          0.51654000       0.79158000       0.64577820
     3  C          0.33346000       0.17653000       0.41272000
     4  C          0.66654000       0.82347000       0.58728000
     5  C          0.31896000       0.16313000       0.52032000
     6  C          0.68104000       0.83687000       0.47968000
     7  H          0.21607500       0.14253600       0.55808300
     8  H          0.78392500       0.85746400       0.44191700
     9  C          0.46025000       0.18113000       0.56972000
    10  C          0.53975000       0.81887000       0.43028000
    11  C          0.61075000       0.21373000       0.51512000
    12  C          0.38925000       0.78627000       0.48488000
    13  H          0.70518100       0.22608300       0.54961000
    14  H          0.29481900       0.77391700       0.45039000
    15  C          0.62046000       0.22783000       0.40802000
    16  C          0.37954000       0.77217000       0.59198000
    17  H          0.72201000       0.25096200       0.37092500
    18  H          0.27799000       0.74903800       0.62907500
    19  C          0.50157000       0.22212000       0.23617190
    20  C          0.49843000       0.77788000       0.76382810
    21  H          0.44177600       0.16573000       0.21037300
    22  H          0.55822400       0.83427000       0.78962700
    23  C          0.41266000       0.35232000       0.19641190
    24  C          0.58734000       0.64768000       0.80358810
    25  H          0.28984000       0.37724900       0.23240700
    26  H          0.71016000       0.62275100       0.76759300
    27  H          0.48585200       0.40548500       0.21264900
    28  H          0.51414800       0.59451500       0.78735100
    29  C          0.23956000       0.41203000       0.03832000
    30  C          0.76044000       0.58797000       0.96168000
    31  H          0.12314400       0.43727600       0.07392700
    32  H          0.87685600       0.56272400       0.92607300
    33  C          0.45696000       0.37063000       0.91638000
    34  C          0.54304000       0.62937000       0.08362000
    35  H          0.51981100       0.36152700       0.85066700
    36  H          0.48018900       0.63847300       0.14933300
    37  C          0.53736000       0.34152000       0.00622000
    38  C          0.46264000       0.65848000      -0.00622000
    39  H          0.66307600       0.30999100       0.01378600
    40  H          0.33692400       0.69000900       0.98621400
    41  C          0.78466000       0.07372000       0.20232000
    42  C          0.21534000       0.92628000       0.79768000
    43  H          0.71551300       0.02768100       0.17164900
    44  H          0.28448700       0.97231900       0.82835100
    45  H          0.79504900       0.04234300       0.27451400
    46  H          0.20495100       0.95765700       0.72548600
    47  C          0.10214000       0.95413000       0.14272000
    48  C          0.89786000       0.04587000       0.85728000
    49  C          0.97346000       0.06042000       0.14562190
    50  C          0.02654000       0.93958000       0.85437810
    51  C          0.03954000       0.15573000       0.08572000
    52  C          0.96046000       0.84427000       0.91428000
    53  H          0.96959100       0.23598500       0.07802200
    54  H          0.03040900       0.76401500       0.92197800
    55  C          0.21444000       0.11793000       0.04092000
    56  C          0.78556000       0.88207000       0.95908000
    57  H          0.27823800       0.16917200      -0.00040700
    58  H          0.72176200       0.83082800       0.00040700
    59  N          0.39687000       0.36777190       0.08424150
    60  N          0.60313000       0.63222810       0.91575850
    61  N          0.27016000       0.41522000       0.93594820
    62  N          0.72984000       0.58478000       0.06405180
    63  O          0.69118000       0.19936150       0.19542130
    64  O          0.30882000       0.80063850       0.80457870
    65  S          0.30391100       0.96631700       0.06896700
    66  S          0.69608900       0.03368300       0.93103300
    67  Cl         0.15346880       0.15335120       0.35114700
    68  Cl         0.84653120       0.84664880       0.64885300
    69  Cl         0.44632830       0.16338100       0.70437600
    70  Cl         0.55367170       0.83661900       0.29562400
    71  Cl         0.07759130       0.81562800       0.20149900
    72  Cl         0.92240870       0.18437200       0.79850100
    73  C          0.08546000       0.48813000       0.59072000
    74  C          0.91454000       0.51187000       0.40928000
    75  C          0.90806000       0.47043000       0.59462000
    76  C          0.09194000       0.52957000       0.40538000
    77  H          0.84711900       0.45016800       0.65813600
    78  H          0.15288100       0.54983200       0.34186400
    79  C          0.82155000       0.48273000       0.50482000
    80  C          0.17845000       0.51727000       0.49518000
    81  H          0.70217700       0.47172800       0.50785000
    82  H          0.29782300       0.52827200       0.49215000
    83  C          0.18345000       0.47703000       0.68632000
    84  C          0.81655000       0.52297000       0.31368000
    85  O          0.34166000       0.48533000       0.68433180
    86  O          0.65834000       0.51467000       0.31566820
    87  O          0.07796000       0.45773000       0.77293170
    88  O          0.92204000       0.54227000       0.22706830
    89  H          0.14250000       0.44950000       0.82730000
    90  H          0.85750000       0.55050000       0.17270000
    91  H          0.85650000       0.55150000       0.17330000
    92  H          0.14350000       0.44850000       0.82670000
