data_YOFDEF
_symmetry_space_group_name_H-M    'P1'
_symmetry_Int_Tables_number       1
loop_
_symmetry_equiv_pos_site_id
_symmetry_equiv_pos_as_xyz
1 x,y,z
_cell_length_a                   10.40021
_cell_length_b                   13.388313
_cell_length_c                   14.297014
_cell_angle_alpha                68.1358
_cell_angle_beta                 70.5408
_cell_angle_gamma                69.1047
loop_
_atom_site_label
_atom_site_type_symbol
_atom_site_fract_x
_atom_site_fract_y
_atom_site_fract_z
     1  I          0.01129400       0.39000300       0.42976300
     2  I          0.60681400       0.91657600       0.96483700
     3  F          0.51005000       0.18605000       0.88806000
     4  F          0.25635000       0.33304000       0.90336000
     5  F          0.03995000       0.04115000       0.10644000
     6  F          0.29446000       0.89115000       0.09015000
     7  F          0.12325000       0.38694000       0.19264000
     8  F          0.37145000       0.29044000       0.08463000
     9  F          0.31046000       0.23525000       0.49173000
    10  F          0.56145000       0.15254000       0.37954000
    11  O          0.01066000       0.26185000       0.00974000
    12  O          0.77546000       0.47435000       0.13075000
    13  O          0.59575000       0.39035000       0.18844000
    14  O          0.60195000       0.17294000       0.17484000
    15  C          0.20787000       0.31697000       0.34546000
    16  C          0.22897000       0.32826000       0.24145000
    17  C          0.35767000       0.27946000       0.18505000
    18  C          0.47317000       0.21966000       0.22935000
    19  C          0.45148000       0.20746000       0.33376000
    20  C          0.32318000       0.25187000       0.39045000
    21  C          0.68017000       0.25206000       0.10025000
    22  H          0.62148100       0.30751400       0.05165200
    23  H          0.76692300       0.21181400       0.05943000
    24  C          0.72027000       0.31176000       0.15335000
    25  H          0.76217000       0.25728600       0.21257700
    26  C          0.81637000       0.38865000       0.08175000
    27  H          0.79567800       0.42120800       0.01125300
    28  C          0.97257000       0.33496000       0.07315000
    29  H          0.02615100       0.39211600       0.04013700
    30  H          0.99223700       0.29200500       0.14239500
    31  C          0.14247000       0.19026000       0.00586000
    32  C          0.26508000       0.22447000       0.95054000
    33  C          0.39698000       0.14607000       0.94274000
    34  C          0.40997000       0.03517000       0.98804000
    35  C          0.28719000       0.00077000       0.04446000
    36  C          0.15608000       0.07697000       0.05266000
    37  C          0.63937000       0.47216000       0.20116000
    38  C          0.65358000       0.44337000       0.31196000
    39  H          0.71873800       0.36800100       0.33068800
    40  H          0.69394600       0.49760100       0.31631600
    41  C          0.50951000       0.44598000       0.38736000
    42  H          0.47522600       0.38487400       0.38924600
    43  H          0.51949400       0.43284300       0.45773300
    44  C          0.40141100       0.55649000       0.35728000
    45  H          0.42956700       0.61629400       0.36386100
    46  H          0.30822300       0.55261700       0.40537100
    47  C          0.38801000       0.58539000       0.24708000
    48  H          0.32153700       0.66012700       0.22871700
    49  H          0.34891500       0.53045500       0.24212600
    50  C          0.53218000       0.58487000       0.17056000
    51  H          0.52200400       0.59914700       0.09987200
    52  H          0.56660900       0.64504300       0.16997900
    53  I          0.83548600       0.40044400       0.78940300
    54  I          0.45020400       0.93412700       0.32795300
    55  F          0.94745000       0.12955000       0.86704000
    56  F          0.20475000       0.99116000       0.84584000
    57  F          0.14076000       0.43524000       0.66204000
    58  F          0.39825000       0.29574000       0.63844000
    59  F          0.31815000       0.94655000       0.56404000
    60  F          0.06006000       0.03795000       0.66214000
    61  F          0.90845000       0.18095000       0.34924000
    62  F          0.16465000       0.08845000       0.25184000
    63  O          0.44446000       0.07785000       0.72945000
    64  O          0.84416000       0.15435000       0.56385000
    65  O          0.84906000       0.93265000       0.57096000
    66  O          0.66446000       0.85775000       0.61444000
    67  C          0.03498000       0.28937000       0.76336000
    68  C          0.15189000       0.32678000       0.70716000
    69  C          0.28628000       0.25517000       0.69406000
    70  C          0.30817000       0.13927000       0.73926000
    71  C          0.18968000       0.10016000       0.79696000
    72  C          0.05528000       0.17387000       0.80775000
    73  C          0.48428000       0.96834000       0.71376000
    74  H          0.40278900       0.95443700       0.70415300
    75  H          0.51631900       0.90917800       0.77412400
    76  C          0.60347000       0.96974000       0.61725000
    77  H          0.56710200       0.01751200       0.55362200
    78  C          0.72897000       0.00326000       0.62025000
    79  H          0.73209500       0.98826800       0.69339800
    80  C          0.72537000       0.12386000       0.56026000
    81  H          0.72711500       0.13599100       0.48715000
    82  H          0.63587100       0.17280400       0.58950700
    83  C          0.97377000       0.10746000       0.51036000
    84  C          0.00738000       0.12087000       0.40476000
    85  C          0.14138000       0.07266000       0.35406000
    86  C          0.24947000       0.01096000       0.40496000
    87  C          0.21737000       0.00266000       0.50926000
    88  C          0.08418000       0.04976000       0.56066000
    89  C          0.80688000       0.85094000       0.55446000
    90  C          0.89959000       0.73623000       0.59637000
    91  H          0.86364000       0.67858500       0.59320100
    92  H          0.89650200       0.72403500       0.66957500
    93  C          0.05389000       0.72592000       0.53178000
    94  H          0.09260300       0.77875200       0.54037100
    95  H          0.11265800       0.64939300       0.55696300
    96  C          0.06011000       0.75102000       0.41819000
    97  H          0.02904300       0.69416200       0.40899500
    98  H          0.15911900       0.74651400       0.37808500
    99  C          0.96641000       0.86692000       0.37597000
   100  H          0.00273000       0.92460100       0.37879200
   101  H          0.96953900       0.87917900       0.30261800
   102  C          0.81389000       0.87852000       0.43917000
   103  H          0.77354600       0.82754400       0.42908600
   104  H          0.75640700       0.95595800       0.41431100
   105  N          0.34283000       0.65776000       0.68156000
   106  N          0.25803000       0.60177000       0.73785000
   107  N          0.73642000       0.48997000       0.53006000
   108  N          0.87222000       0.77317000       0.89646000
   109  C          0.47512000       0.59418000       0.63296000
   110  C          0.51311000       0.47867000       0.65257000
   111  H          0.45134600       0.43461200       0.69991000
   112  C          0.64622000       0.43128000       0.59927000
   113  H          0.67537200       0.35239600       0.61247400
   114  C          0.69791000       0.59878000       0.51467000
   115  H          0.76228000       0.64057800       0.46731500
   116  C          0.56849000       0.65508000       0.56387000
   117  H          0.54443300       0.73372000       0.55038100
   118  C          0.12852000       0.66537000       0.78876000
   119  C          0.10102000       0.77637000       0.78066000
   120  H          0.16866800       0.81740000       0.73929700
   121  C          0.97011000       0.82588000       0.83557000
   122  H          0.94965500       0.90292200       0.82884800
   123  C          0.90221000       0.66398000       0.90347000
   124  H          0.83393000       0.62421000       0.94650700
   125  C          0.02861000       0.60728000       0.85036000
   126  H          0.04597900       0.53067800       0.85617500
   127  N          0.18703000       0.71706000       0.01586000
   128  N          0.09813000       0.66376000       0.06456000
   129  N          0.56723000       0.54567000       0.85216000
   130  N          0.71753000       0.83576000       0.22606000
   131  C          0.31522000       0.65247000       0.96186000
   132  C          0.33692000       0.54437000       0.96306000
   133  H          0.26626300       0.50542100       0.00074600
   134  C          0.46552000       0.49447000       0.90736000
   135  H          0.48209200       0.41941200       0.90860200
   136  C          0.54481000       0.65069000       0.85088000
   137  H          0.61709000       0.68760200       0.81134000
   138  C          0.41989000       0.70828000       0.90498000
   139  H          0.40653500       0.78288900       0.90301000
   140  C          0.97042000       0.72627000       0.11817000
   141  C          0.87311000       0.66697000       0.18427000
   142  H          0.89031600       0.58981100       0.19263400
   143  C          0.74761000       0.72668000       0.23837000
   144  H          0.68103500       0.68715700       0.28596900
   145  C          0.81111000       0.89057000       0.16128000
   146  H          0.78951200       0.96818500       0.15232700
   147  C          0.93911000       0.83998000       0.10578000
   148  H          0.00436500       0.88179700       0.06016600
