data_YOFLEN
_symmetry_space_group_name_H-M    'P1'
_symmetry_Int_Tables_number       1
loop_
_symmetry_equiv_pos_site_id
_symmetry_equiv_pos_as_xyz
1 x,y,z
_cell_length_a                   10.97512
_cell_length_b                   14.23072
_cell_length_c                   10.86292
_cell_angle_alpha                90.0
_cell_angle_beta                 99.909319
_cell_angle_gamma                90.0
loop_
_atom_site_label
_atom_site_type_symbol
_atom_site_fract_x
_atom_site_fract_y
_atom_site_fract_z
     1  I          0.81045700       0.35769300       0.80044700
     2  I          0.18954300       0.85769300       0.69955300
     3  I          0.18954300       0.64230700       0.19955300
     4  I          0.81045700       0.14230700       0.30044700
     5  I          0.01091300       0.34227200       0.01921300
     6  I         -0.01091300       0.84227200       0.48078700
     7  I         -0.01091300       0.65772800       0.98078700
     8  I          0.01091300       0.15772800       0.51921300
     9  I          0.20925300       0.32936300       0.23337300
    10  I          0.79074700       0.82936300       0.26662700
    11  I          0.79074700       0.67063700       0.76662700
    12  I          0.20925300       0.17063700       0.73337300
    13  C          0.07845000       0.59284000       0.64115000
    14  C          0.92155000       0.09284000       0.85885000
    15  C          0.92155000       0.40716000       0.35885000
    16  C          0.07845000       0.90716000       0.14115000
    17  H          0.03978400       0.64881900       0.65605100
    18  H          0.96021600       0.14881900       0.84394900
    19  H          0.96021600       0.35118100       0.34394900
    20  H          0.03978400       0.85118100       0.15605100
    21  N          0.03745000       0.50933000       0.68195000
    22  N          0.96255000       0.00933000       0.81805000
    23  N          0.96255000       0.49067000       0.31805000
    24  N          0.03745000      -0.00933000       0.18195000
    25  H          0.97639000       0.50901400       0.72219400
    26  H          0.02361000       0.00901400       0.77780600
    27  H          0.02361000       0.49098600       0.27780600
    28  H          0.97639000      -0.00901400       0.22219400
    29  N          0.32875000       0.50934000       0.49285000
    30  N          0.67125000       0.00934000       0.00715000
    31  N          0.67125000       0.49066000       0.50715000
    32  N          0.32875000      -0.00934000      -0.00715000
    33  H          0.35681600       0.56125800       0.46869400
    34  H          0.64318400       0.06125800       0.03130600
    35  H          0.64318400       0.43874200       0.53130600
    36  H          0.35681600       0.93874200       0.96869400
    37  H          0.36249100       0.45687000       0.47805700
    38  H          0.63750900       0.95687000       0.02194300
    39  H          0.63750900       0.54313000       0.52194300
    40  H          0.36249100       0.04313000       0.97805700
    41  C          0.17505000       0.59374000       0.57915000
    42  C          0.82495000       0.09374000       0.92085000
    43  C          0.82495000       0.40626000       0.42085000
    44  C          0.17505000       0.90626000       0.07915000
    45  H          0.20326000       0.65081900       0.55346500
    46  H          0.79674000       0.15081900       0.94653500
    47  H          0.79674000       0.34918100       0.44653500
    48  H          0.20326000       0.84918100       0.05346500
    49  C          0.23415000       0.50984000       0.55235000
    50  C          0.76585000       0.00984000       0.94765000
    51  C          0.76585000       0.49016000       0.44765000
    52  C          0.23415000       0.99016000       0.05235000
    53  C          0.18875000       0.42454000       0.59685000
    54  C          0.81125000       0.92454000       0.90315000
    55  C          0.81125000       0.57546000       0.40315000
    56  C          0.18875000       0.07546000       0.09685000
    57  H          0.22513100       0.36737100       0.58297200
    58  H          0.77486900       0.86737100       0.91702800
    59  H          0.77486900       0.63262900       0.41702800
    60  H          0.22513100       0.13262900       0.08297200
    61  C          0.09195000       0.42754000       0.65956000
    62  C          0.90805000       0.92754000       0.84044000
    63  C          0.90805000       0.57246000       0.34044000
    64  C          0.09195000       0.07246000       0.15956000
    65  H          0.06229400       0.37168200       0.68768600
    66  H          0.93770600       0.87168200       0.81231400
    67  H          0.93770600       0.62831800       0.31231400
    68  H          0.06229400       0.12831800       0.18768600
    69  N          0.37895000       0.38914000       0.91585000
    70  N          0.62105000       0.88914000       0.58415000
    71  N          0.62105000       0.61086000       0.08415000
    72  N          0.37895000       0.11086000       0.41585000
    73  H          0.36735800       0.33513000       0.94732000
    74  H          0.63264200       0.83513000       0.55268000
    75  H          0.63264200       0.66487000       0.05268000
    76  H          0.36735800       0.16487000       0.44732000
    77  N          0.43565000       0.64704000       0.76885000
    78  N          0.56435000       0.14704000       0.73115000
    79  N          0.56435000       0.35296000       0.23115000
    80  N          0.43565000       0.85296000       0.26885000
    81  H          0.48163400       0.65238200       0.71262000
    82  H          0.51836600       0.15238200       0.78738000
    83  H          0.51836600       0.34761800       0.28738000
    84  H          0.48163400       0.84761800       0.21262000
    85  H          0.40136100       0.69589600       0.79442800
    86  H          0.59863900       0.19589600       0.70557200
    87  H          0.59863900       0.30410400       0.20557200
    88  H          0.40136100       0.80410400       0.29442800
    89  C          0.32596000       0.46634000       0.95576000
    90  C          0.67404000       0.96634000       0.54424000
    91  C          0.67404000       0.53366000       0.04424000
    92  C          0.32596000       0.03366000       0.45576000
    93  H          0.27647300       0.45986500       0.01662700
    94  H          0.72352700       0.95986500       0.48337300
    95  H          0.72352700       0.54013500       0.98337300
    96  H          0.27647300       0.04013500       0.51662700
    97  C          0.34266000       0.55275000       0.90986000
    98  C          0.65734000       0.05275000       0.59014000
    99  C          0.65734000       0.44725000       0.09014000
   100  C          0.34266000       0.94725000       0.40986000
   101  H          0.30553300       0.60485500       0.93937400
   102  H          0.69446700       0.10485500       0.56062600
   103  H          0.69446700       0.39514500       0.06062600
   104  H          0.30553300       0.89514500       0.43937400
   105  C          0.41756000       0.56354000       0.81576000
   106  C          0.58244000       0.06354000       0.68424000
   107  C          0.58244000       0.43646000       0.18424000
   108  C          0.41756000       0.93646000       0.31576000
   109  C          0.47176000       0.48134000       0.77656000
   110  C          0.52824000       0.98134000       0.72344000
   111  C          0.52824000       0.51866000       0.22344000
   112  C          0.47176000       0.01866000       0.27656000
   113  H          0.52243300       0.48542200       0.71634700
   114  H          0.47756700       0.98542200       0.78365300
   115  H          0.47756700       0.51457800       0.28365300
   116  H          0.52243300       0.01457800       0.21634700
   117  C          0.45096000       0.39654000       0.82536000
   118  C          0.54904000       0.89654000       0.67464000
   119  C          0.54904000       0.60346000       0.17464000
   120  C          0.45096000       0.10346000       0.32536000
   121  H          0.48583800       0.34279300       0.79712400
   122  H          0.51416200       0.84279300       0.70287600
   123  H          0.51416200       0.65720700       0.20287600
   124  H          0.48583800       0.15720700       0.29712400
   125  Cl         0.51656130       0.68809900       0.49357120
   126  Cl         0.48343870       0.18809900       0.00642880
   127  Cl         0.48343870       0.31190100       0.50642880
   128  Cl         0.51656130       0.81190100      -0.00642880
