data_YOHCIL
_symmetry_space_group_name_H-M    'P1'
_symmetry_Int_Tables_number       1
loop_
_symmetry_equiv_pos_site_id
_symmetry_equiv_pos_as_xyz
1 x,y,z
_cell_length_a                   9.85033
_cell_length_b                   7.92123
_cell_length_c                   13.82195
_cell_angle_alpha                90.0
_cell_angle_beta                 97.16201
_cell_angle_gamma                90.0
loop_
_atom_site_label
_atom_site_type_symbol
_atom_site_fract_x
_atom_site_fract_y
_atom_site_fract_z
     1  O          0.96611100       0.59144120       0.38733800
     2  O          0.53388900       0.09144120       0.11266200
     3  O          0.03388900       0.40855880       0.61266200
     4  O          0.46611100       0.90855880       0.88733800
     5  O          0.90303100       0.78351120       0.48494700
     6  O          0.59696900       0.28351120       0.01505300
     7  O          0.09696900       0.21648880       0.51505300
     8  O          0.40303100       0.71648880       0.98494700
     9  O          0.73394120       0.34944170       0.23058700
    10  O          0.76605880       0.84944170       0.26941300
    11  O          0.26605880       0.65055830       0.76941300
    12  O          0.23394120       0.15055830       0.73058700
    13  O          0.86790130       0.22438150       0.34299800
    14  O          0.63209870       0.72438150       0.15700200
    15  O          0.13209870       0.77561850       0.65700200
    16  O          0.36790130       0.27561850       0.84299800
    17  N          0.88471900       0.65367120       0.43768700
    18  N          0.61528100       0.15367120       0.06231300
    19  N          0.11528100       0.34632880       0.56231300
    20  N          0.38471900       0.84632880       0.93768700
    21  N          0.77851100       0.32372120       0.31496700
    22  N          0.72148900       0.82372120       0.18503300
    23  N          0.22148900       0.67627880       0.68503300
    24  N          0.27851100       0.17627880       0.81496700
    25  N          0.52395100       0.23264120       0.37656700
    26  N          0.97604900       0.73264120       0.12343300
    27  N          0.47604900       0.76735880       0.62343300
    28  N          0.02395100       0.26735880       0.87656700
    29  N          0.59342900       0.37998110       0.41212600
    30  N          0.90657100       0.87998110       0.08787400
    31  N          0.40657100       0.62001890       0.58787400
    32  N          0.09342900       0.12001890       0.91212600
    33  N          0.66267900       0.61306110       0.49566700
    34  N          0.83732100       0.11306110       0.00433300
    35  N          0.33732100       0.38693890       0.50433300
    36  N          0.16267900       0.88693890      -0.00433300
    37  C          0.75845100       0.56354130       0.43971800
    38  C          0.74154900       0.06354130       0.06028200
    39  C          0.24154900       0.43645870       0.56028200
    40  C          0.25845100       0.93645870       0.93971800
    41  C          0.71794100       0.42141130       0.38745800
    42  C          0.78205900       0.92141130       0.11254200
    43  C          0.28205900       0.57858870       0.61254200
    44  C          0.21794100       0.07858870       0.88745800
    45  C          0.56344100       0.50011130       0.47842700
    46  C          0.93655900       0.00011130       0.02157300
    47  C          0.43655900       0.49988870       0.52157300
    48  C          0.06344100      -0.00011130       0.97842700
    49  H          0.44611600       0.27111900       0.34181100
    50  H          0.05388400       0.77111900       0.15818900
    51  H          0.55388400       0.72888100       0.65818900
    52  H          0.94611600       0.22888100       0.84181100
    53  H          0.50620000       0.16920000       0.43251500
    54  H         -0.00620000       0.66920000       0.06748500
    55  H          0.49380000       0.83080000       0.56748500
    56  H          0.00620000       0.33080000       0.93251500
    57  O          0.30825900       0.39841110       0.25073600
    58  O          0.19174100       0.89841110       0.24926400
    59  O          0.69174100       0.60158890       0.74926400
    60  O          0.80825900       0.10158890       0.75073600
    61  O          0.11665800       0.39125100       0.08003600
    62  O          0.38334200       0.89125100       0.41996400
    63  O          0.88334200       0.60874900       0.91996400
    64  O          0.61665800       0.10874900       0.58003600
    65  C          0.34354120       0.45738170       0.15896900
    66  C          0.15645880       0.95738170       0.34103100
    67  C          0.65645880       0.54261830       0.84103100
    68  C          0.84354120       0.04261830       0.65896900
    69  H          0.44204000       0.43713800       0.15570700
    70  H          0.05796000       0.93713800       0.34429300
    71  H          0.55796000       0.56286200       0.84429300
    72  H          0.94204000       0.06286200       0.65570700
    73  H          0.32678600       0.58042700       0.15328700
    74  H          0.17321400       0.08042700       0.34671300
    75  H          0.67321400       0.41957300       0.84671300
    76  H          0.82678600       0.91957300       0.65328700
    77  C          0.26003120       0.36771160       0.07582900
    78  C          0.23996880       0.86771160       0.42417100
    79  C          0.73996880       0.63228840       0.92417100
    80  C          0.76003120       0.13228840       0.57582900
    81  H          0.28402000       0.41195900       0.01314900
    82  H          0.21598000       0.91195900       0.48685100
    83  H          0.71598000       0.58804100       0.98685100
    84  H          0.78402000       0.08804100       0.51314900
    85  H          0.28168600       0.24563600       0.07892100
    86  H          0.21831400       0.74563600       0.42107900
    87  H          0.71831400       0.75436400       0.92107900
    88  H          0.78168600       0.25436400       0.57892100
    89  C          0.08123120       0.33212150       0.17133900
    90  C          0.41876880       0.83212150       0.32866100
    91  C          0.91876880       0.66787850       0.82866100
    92  C          0.58123120       0.16787850       0.67133900
    93  H          0.09749800       0.20894300       0.17663500
    94  H          0.40250200       0.70894300       0.32336500
    95  H          0.90250200       0.79105700       0.82336500
    96  H          0.59749800       0.29105700       0.67663500
    97  H          0.98276100       0.35276300       0.17450500
    98  H          0.51723900       0.85276300       0.32549500
    99  H          0.01723900       0.64723700       0.82549500
   100  H          0.48276100       0.14723700       0.67450500
   101  C          0.16506120       0.42086140       0.25538800
   102  C          0.33493880       0.92086140       0.24461200
   103  C          0.83493880       0.57913860       0.74461200
   104  C          0.66506120       0.07913860       0.75538800
   105  H          0.14301900       0.54284100       0.25319700
   106  H          0.35698100       0.04284100       0.24680300
   107  H          0.85698100       0.45715900       0.74680300
   108  H          0.64301900       0.95715900       0.75319700
   109  H          0.14143700       0.37500400       0.31777900
   110  H          0.35856300       0.87500400       0.18222100
   111  H          0.85856300       0.62499600       0.68222100
   112  H          0.64143700       0.12499600       0.81777900
