data_YOJDIL
_symmetry_space_group_name_H-M    'P1'
_symmetry_Int_Tables_number       1
loop_
_symmetry_equiv_pos_site_id
_symmetry_equiv_pos_as_xyz
1 x,y,z
_cell_length_a                   8.1562
_cell_length_b                   14.1034
_cell_length_c                   16.3806
_cell_angle_alpha                90.942
_cell_angle_beta                 99.312
_cell_angle_gamma                100.912
loop_
_atom_site_label
_atom_site_type_symbol
_atom_site_fract_x
_atom_site_fract_y
_atom_site_fract_z
     1  C          0.08481100       0.19997000       0.35846000
     2  C          0.91518900       0.80003000       0.64154000
     3  C          0.01141100       0.05967000       0.28406000
     4  C         -0.01141100       0.94033000       0.71594000
     5  C          0.92021100       0.19177000       0.23266000
     6  C          0.07978900       0.80823000       0.76734000
     7  C          0.16871100       0.25467000       0.43576000
     8  C          0.83128900       0.74533000       0.56424000
     9  C          0.24361200       0.20799000       0.50166000
    10  C          0.75638800       0.79201000       0.49834000
    11  H          0.24320000       0.14050000       0.49900000
    12  H          0.75680000       0.85950000       0.50100000
    13  C          0.32121500       0.26841400       0.57378000
    14  C          0.67878500       0.73158600       0.42622000
    15  H          0.38100000       0.24220000       0.61970000
    16  H          0.61900000       0.75780000       0.38030000
    17  C          0.30961600       0.36651400       0.57671000
    18  C          0.69038400       0.63348600       0.42329000
    19  H          0.35890000       0.40590000       0.62530000
    20  H          0.64110000       0.59410000       0.37470000
    21  C          0.23121900       0.40381100       0.51281000
    22  C          0.76878100       0.59618900       0.48719000
    23  H          0.22360000       0.47010000       0.51540000
    24  H          0.77640000       0.52990000       0.48460000
    25  C          0.00261100       0.95363000       0.27796000
    26  C         -0.00261100       0.04637000       0.72204000
    27  C          0.07801200       0.90422000       0.33797000
    28  C          0.92198800       0.09578000       0.66203000
    29  H          0.14590000       0.93800000       0.38610000
    30  H          0.85410000       0.06200000       0.61390000
    31  C          0.05701400       0.80461000       0.32988000
    32  C          0.94298600       0.19539000       0.67012000
    33  H          0.11110000       0.77000000       0.37180000
    34  H          0.88890000       0.23000000       0.62820000
    35  C          0.95481500       0.75551000       0.25869000
    36  C          0.04518500       0.24449000       0.74131000
    37  H          0.93870000       0.68730000       0.25180000
    38  H          0.06130000       0.31270000       0.74820000
    39  C          0.87991400       0.80722000       0.20018000
    40  C          0.12008600       0.19278000       0.79982000
    41  H          0.80910000       0.77510000       0.15200000
    42  H          0.19090000       0.22490000       0.84800000
    43  C          0.82911100       0.23857000       0.16676000
    44  C          0.17088900       0.76143000       0.83324000
    45  C          0.75631100       0.19027000       0.09186000
    46  C          0.24368900       0.80973000       0.90814000
    47  H          0.75930000       0.12390000       0.08240000
    48  H          0.24070000       0.87610000       0.91760000
    49  C          0.67551300       0.24371300       0.02867000
    50  C          0.32448700       0.75628700       0.97133000
    51  H          0.62740000       0.21410000       0.97540000
    52  H          0.37260000       0.78590000       0.02460000
    53  C          0.66921600       0.34021300       0.04681200
    54  C          0.33078400       0.65978700       0.95318800
    55  H          0.61570000       0.37630000       0.00580000
    56  H          0.38430000       0.62370000      -0.00580000
    57  C          0.73591600       0.38061100       0.11911100
    58  C          0.26408400       0.61938900       0.88088900
    59  H          0.72690000       0.44550000       0.13040000
    60  H          0.27310000       0.55450000       0.86960000
    61  N         -0.00241000       0.24665000       0.30085000
    62  N          0.00241000       0.75335000       0.69915000
    63  N          0.09959000       0.10736000       0.35185000
    64  N          0.90041000       0.89264000       0.64815000
    65  N          0.91809000       0.09725000       0.22095000
    66  N          0.08191000       0.90275000       0.77905000
    67  N          0.16111100       0.34887000       0.44356000
    68  N          0.83888900       0.65113000       0.55644000
    69  H          0.10860000       0.37580000       0.40150000
    70  H          0.89140000       0.62420000       0.59850000
    71  N          0.90521000       0.90544000       0.20986000
    72  N          0.09479000       0.09456000       0.79014000
    73  H          0.85680000       0.93820000       0.17080000
    74  H          0.14320000       0.06180000       0.82920000
    75  N          0.81641100       0.33456000       0.17816000
    76  N          0.18358900       0.66544000       0.82184000
    77  H          0.86280000       0.36550000       0.22580000
    78  H          0.13720000       0.63450000       0.77420000
    79  Br         0.78376130       0.03882900       0.43396700
    80  Br         0.21623870       0.96117100       0.56603300
    81  I          0.50000000       0.00000000       0.50000000
    82  Br         0.44465140       0.83451200       0.22066700
    83  Br         0.55534860       0.16548800       0.77933300
    84  I          0.41542800       0.01552600       0.20873400
    85  I          0.58457200       0.98447400       0.79126600
    86  Br         0.00641140       0.39165800       0.91976300
    87  Br        -0.00641140       0.60834200       0.08023700
    88  I          0.18691900       0.32485600       0.04475500
    89  I          0.81308100       0.67514400       0.95524500
    90  Br         0.36057140       0.22007100       0.19133700
    91  Br         0.63942860       0.77992900       0.80866300
    92  Br         0.73876150       0.33319100       0.49484800
    93  Br         0.26123850       0.66680900       0.50515200
    94  I          0.56138800       0.28348500       0.34971400
    95  I          0.43861200       0.71651500       0.65028600
    96  Br         0.31556130       0.06343800       0.96878300
    97  Br         0.68443870       0.93656200       0.03121700
    98  I          0.00000000       0.00000000       0.00000000
    99  Br         0.46511860       0.41447900       0.82154200
   100  Br         0.53488140       0.58552100       0.17845800
   101  Br         0.01684130       0.48850800       0.66966300
   102  Br        -0.01684130       0.51149200       0.33033700
   103  I          0.73284200       0.45383500       0.74632600
   104  I          0.26715800       0.54616500       0.25367400
