data_YOLSIF
_symmetry_space_group_name_H-M    'P1'
_symmetry_Int_Tables_number       1
loop_
_symmetry_equiv_pos_site_id
_symmetry_equiv_pos_as_xyz
1 x,y,z
_cell_length_a                   11.857712
_cell_length_b                   11.984812
_cell_length_c                   11.529312
_cell_angle_alpha                90.0
_cell_angle_beta                 90.0
_cell_angle_gamma                90.0
loop_
_atom_site_label
_atom_site_type_symbol
_atom_site_fract_x
_atom_site_fract_y
_atom_site_fract_z
     1  N          0.23686000       0.75571600       0.49731100
     2  N          0.76314000       0.24428400      -0.00268900
     3  N          0.23686000       0.24428400      -0.00268900
     4  N          0.76314000       0.75571600       0.49731100
     5  N          0.73686000       0.25571600       0.49731100
     6  N          0.26314000       0.74428400      -0.00268900
     7  N          0.73686000       0.74428400      -0.00268900
     8  N          0.26314000       0.25571600       0.49731100
     9  H          0.18276300       0.79404300       0.46137200
    10  H          0.81723700       0.20595700       0.96137200
    11  H          0.18276300       0.20595700       0.96137200
    12  H          0.81723700       0.79404300       0.46137200
    13  H          0.68276300       0.29404300       0.46137200
    14  H          0.31723700       0.70595700       0.96137200
    15  H          0.68276300       0.70595700       0.96137200
    16  H          0.31723700       0.29404300       0.46137200
    17  H          0.20567300       0.70317300       0.54145300
    18  H          0.79432700       0.29682700       0.04145300
    19  H          0.20567300       0.29682700       0.04145300
    20  H          0.79432700       0.70317300       0.54145300
    21  H          0.70567300       0.20317300       0.54145300
    22  H          0.29432700       0.79682700       0.04145300
    23  H          0.70567300       0.79682700       0.04145300
    24  H          0.29432700       0.20317300       0.54145300
    25  H          0.27710300       0.80172300       0.54145300
    26  H          0.72289700       0.19827700       0.04145300
    27  H          0.27710300       0.19827700       0.04145300
    28  H          0.72289700       0.80172300       0.54145300
    29  H          0.77710300       0.30172300       0.54145300
    30  H          0.22289700       0.69827700       0.04145300
    31  H          0.77710300       0.69827700       0.04145300
    32  H          0.22289700       0.30172300       0.54145300
    33  H          0.28150300       0.72399300       0.44480300
    34  H          0.71849700       0.27600700       0.94480300
    35  H          0.28150300       0.27600700       0.94480300
    36  H          0.71849700       0.72399300       0.44480300
    37  H          0.78150300       0.22399300       0.44480300
    38  H          0.21849700       0.77600700       0.94480300
    39  H          0.78150300       0.77600700       0.94480300
    40  H          0.21849700       0.22399300       0.44480300
    41  I          0.50000000       0.50433900       0.10366100
    42  I          0.50000000       0.49566100       0.60366100
    43  I         -0.00000000       0.00433900       0.10366100
    44  I         -0.00000000      -0.00433900       0.60366100
    45  I          0.50000000       0.23618800       0.21629100
    46  I          0.50000000       0.76381200       0.71629100
    47  I         -0.00000000       0.73618800       0.21629100
    48  I         -0.00000000       0.26381200       0.71629100
    49  I          0.50000000       0.73397900       0.27353110
    50  I          0.50000000       0.26602100       0.77353110
    51  I          0.00000000       0.23397900       0.27353110
    52  I         -0.00000000       0.76602100       0.77353110
    53  I          0.75922500       0.47869500       0.23825600
    54  I          0.24077500       0.52130500       0.73825600
    55  I          0.75922500       0.52130500       0.73825600
    56  I          0.24077500       0.47869500       0.23825600
    57  I          0.25922500       0.97869500       0.23825600
    58  I          0.74077500       0.02130500       0.73825600
    59  I          0.25922500       0.02130500       0.73825600
    60  I          0.74077500       0.97869500       0.23825600
    61  O          0.50000000       0.32868000       0.08209000
    62  O          0.50000000       0.67132000       0.58209000
    63  O         -0.00000000       0.82868000       0.08209000
    64  O         -0.00000000       0.17132000       0.58209000
    65  O          0.61477000       0.15137000       0.16667000
    66  O          0.38523000       0.84863000       0.66667000
    67  O          0.61477000       0.84863000       0.66667000
    68  O          0.38523000       0.15137000       0.16667000
    69  O          0.11477000       0.65137000       0.16667000
    70  O          0.88523000       0.34863000       0.66667000
    71  O          0.11477000       0.34863000       0.66667000
    72  O          0.88523000       0.65137000       0.16667000
    73  O          0.50000000       0.68349000       0.11989000
    74  O          0.50000000       0.31651000       0.61989000
    75  O         -0.00000000       0.18349000       0.11989000
    76  O         -0.00000000       0.81651000       0.61989000
    77  O          0.38328000       0.65198000       0.32418000
    78  O          0.61672000       0.34802000       0.82418000
    79  O          0.38328000       0.34802000       0.82418000
    80  O          0.61672000       0.65198000       0.32418000
    81  O          0.88328000       0.15198000       0.32418000
    82  O          0.11672000       0.84802000       0.82418000
    83  O          0.88328000       0.84802000       0.82418000
    84  O          0.11672000       0.15198000       0.32418000
    85  O          0.67756000       0.51046000       0.09957000
    86  O          0.32244000       0.48954000       0.59957000
    87  O          0.67756000       0.48954000       0.59957000
    88  O          0.32244000       0.51046000       0.09957000
    89  O          0.17756000       0.01046000       0.09957000
    90  O          0.82244000      -0.01046000       0.59957000
    91  O          0.17756000      -0.01046000       0.59957000
    92  O          0.82244000       0.01046000       0.09957000
    93  O          0.85927000       0.39327000       0.16288000
    94  O          0.14073000       0.60673000       0.66288000
    95  O          0.85927000       0.60673000       0.66288000
    96  O          0.14073000       0.39327000       0.16288000
    97  O          0.35927000       0.89327000       0.16288000
    98  O          0.64073000       0.10673000       0.66288000
    99  O          0.35927000       0.10673000       0.66288000
   100  O          0.64073000       0.89327000       0.16288000
   101  O          0.66288000       0.37787000       0.29567000
   102  O          0.33712000       0.62213000       0.79567000
   103  O          0.66288000       0.62213000       0.79567000
   104  O          0.33712000       0.37787000       0.29567000
   105  O          0.16288000       0.87787000       0.29567000
   106  O          0.83712000       0.12213000       0.79567000
   107  O          0.16288000       0.12213000       0.79567000
   108  O          0.83712000       0.87787000       0.29567000
   109  I          0.50000000       0.00297100       0.48277900
   110  I          0.50000000      -0.00297100       0.98277900
   111  I         -0.00000000       0.50297100       0.48277900
   112  I         -0.00000000       0.49702900       0.98277900
   113  O          0.50000000       0.13641100       0.41111100
   114  O          0.50000000       0.86358900       0.91111100
   115  O         -0.00000000       0.63641100       0.41111100
   116  O         -0.00000000       0.36358900       0.91111100
   117  O          0.38328000       0.93413000       0.41107000
   118  O          0.61672000       0.06587000       0.91107000
   119  O          0.38328000       0.06587000       0.91107000
   120  O          0.61672000       0.93413000       0.41107000
   121  O          0.88328000       0.43413000       0.41107000
   122  O          0.11672000       0.56587000       0.91107000
   123  O          0.88328000       0.56587000       0.91107000
   124  O          0.11672000       0.43413000       0.41107000
