data_YOLXUV
_symmetry_space_group_name_H-M    'P1'
_symmetry_Int_Tables_number       1
loop_
_symmetry_equiv_pos_site_id
_symmetry_equiv_pos_as_xyz
1 x,y,z
_cell_length_a                   14.92903
_cell_length_b                   5.742978
_cell_length_c                   27.76275
_cell_angle_alpha                90.0
_cell_angle_beta                 104.784718
_cell_angle_gamma                90.0
loop_
_atom_site_label
_atom_site_type_symbol
_atom_site_fract_x
_atom_site_fract_y
_atom_site_fract_z
     1  N          0.09252700       0.79781180       0.00277400
     2  N          0.40747300       0.29781180       0.49722600
     3  N          0.90747300       0.20218820      -0.00277400
     4  N          0.59252700       0.70218820       0.50277400
     5  H          0.05550000       0.90650000       0.98640000
     6  H          0.44450000       0.40650000       0.51360000
     7  H          0.94450000       0.09350000       0.01360000
     8  H          0.55550000       0.59350000       0.48640000
     9  H          0.14400000       0.76310000       0.99440000
    10  H          0.35600000       0.26310000       0.50560000
    11  H          0.85600000       0.23690000       0.00560000
    12  H          0.64400000       0.73690000       0.49440000
    13  N          0.02045600       0.45909160       0.11672300
    14  N          0.47954400       0.95909160       0.38327700
    15  N          0.97954400       0.54090840       0.88327700
    16  N          0.52045600       0.04090840       0.61672300
    17  N         -0.00893600       0.74423160       0.05196300
    18  N          0.50893600       0.24423160       0.44803700
    19  N          0.00893600       0.25576840       0.94803700
    20  N          0.49106400       0.75576840       0.55196300
    21  C          0.07040700       0.68383190       0.04089400
    22  C          0.42959300       0.18383190       0.45910600
    23  C          0.92959300       0.31616810       0.95910600
    24  C          0.57040700       0.81616810       0.54089400
    25  C          0.12867700       0.50405190       0.06654400
    26  C          0.37132300       0.00405190       0.43345600
    27  C          0.87132300       0.49594810       0.93345600
    28  C          0.62867700      -0.00405190       0.56654400
    29  C          0.20792700       0.41866190       0.04678400
    30  C          0.29207300       0.91866190       0.45321600
    31  C          0.79207300       0.58133810       0.95321600
    32  C          0.70792700       0.08133810       0.54678400
    33  H          0.18260000       0.37030000       0.01170000
    34  H          0.31740000       0.87030000       0.48830000
    35  H          0.81740000       0.62970000       0.98830000
    36  H          0.68260000       0.12970000       0.51170000
    37  H          0.23420000       0.27810000       0.06590000
    38  H          0.26580000       0.77810000       0.43410000
    39  H          0.76580000       0.72190000       0.93410000
    40  H          0.73420000       0.22190000       0.56590000
    41  C          0.28661700       0.58902000       0.04854400
    42  C          0.21338300       0.08902000       0.45145600
    43  C          0.71338300       0.41098000       0.95145600
    44  C          0.78661700       0.91098000       0.54854400
    45  C          0.30405800       0.77772000       0.08101400
    46  C          0.19594200       0.27772000       0.41898600
    47  C          0.69594200       0.22228000       0.91898600
    48  C          0.80405800       0.72228000       0.58101400
    49  H          0.26570000       0.80330000       0.10310000
    50  H          0.23430000       0.30330000       0.39690000
    51  H          0.73430000       0.19670000       0.89690000
    52  H          0.76570000       0.69670000       0.60310000
    53  C          0.37687800       0.92922000       0.08157500
    54  C          0.12312200       0.42922000       0.41842500
    55  C          0.62312200       0.07078000       0.91842500
    56  C          0.87687800       0.57078000       0.58157500
    57  H          0.38820000       0.05700000       0.10400000
    58  H          0.11180000       0.55700000       0.39600000
    59  H          0.61180000       0.94300000       0.89600000
    60  H          0.88820000       0.44300000       0.60400000
    61  C          0.43301900       0.89432000       0.04947500
    62  C          0.06698100       0.39432000       0.45052500
    63  C          0.56698100       0.10568000       0.95052500
    64  C          0.93301900       0.60568000       0.54947500
    65  H          0.48290000      -0.00230000       0.04990000
    66  H          0.01710000       0.49770000       0.45010000
    67  H          0.51710000       0.00230000       0.95010000
    68  H          0.98290000       0.50230000       0.54990000
    69  C          0.41605900       0.70762000       0.01678500
    70  C          0.08394100       0.20762000       0.48321500
    71  C          0.58394100       0.29238000       0.98321500
    72  C          0.91605900       0.79238000       0.51678500
    73  H          0.45430000       0.68340000       0.99470000
    74  H          0.04570000       0.18340000       0.50530000
    75  H          0.54570000       0.31660000       0.00530000
    76  H          0.95430000       0.81660000       0.49470000
    77  C          0.34359900       0.55622000       0.01619500
    78  C          0.15640100       0.05622000       0.48380500
    79  C          0.65640100       0.44378000       0.98380500
    80  C          0.84359900       0.94378000       0.51619500
    81  H          0.33250000       0.42890000       0.99360000
    82  H          0.16750000       0.92890000       0.50640000
    83  H          0.66750000       0.57110000       0.00640000
    84  H          0.83250000       0.07110000       0.49360000
    85  C          0.10222700       0.40615180       0.10642400
    86  C          0.39777300       0.90615180       0.39357600
    87  C          0.89777300       0.59384820       0.89357600
    88  C          0.60222700       0.09384820       0.60642400
    89  C          0.15984700       0.23449190       0.14105400
    90  C          0.34015300       0.73449190       0.35894600
    91  C          0.84015300       0.76550810       0.85894600
    92  C          0.65984700       0.26550810       0.64105400
    93  C          0.11811800       0.03972000       0.15625400
    94  C          0.38188200       0.53972000       0.34374600
    95  C          0.88188200       0.96028000       0.84374600
    96  C          0.61811800       0.46028000       0.65625400
    97  H          0.05340000       0.01600000       0.14370000
    98  H          0.44660000       0.51600000       0.35630000
    99  H          0.94660000      -0.01600000       0.85630000
   100  H          0.55340000       0.48400000       0.64370000
   101  C          0.17016800       0.88078000       0.18933400
   102  C          0.32983200       0.38078000       0.31066600
   103  C          0.82983200       0.11922000       0.81066600
   104  C          0.67016800       0.61922000       0.68933400
   105  H          0.14120000       0.74770000       0.19900000
   106  H          0.35880000       0.24770000       0.30100000
   107  H          0.85880000       0.25230000       0.80100000
   108  H          0.64120000       0.75230000       0.69900000
   109  C          0.26477800       0.91548000       0.20855400
   110  C          0.23522200       0.41548000       0.29144600
   111  C          0.73522200       0.08452000       0.79144600
   112  C          0.76477800       0.58452000       0.70855400
   113  H          0.30040000       0.80660000       0.23130000
   114  H          0.19960000       0.30660000       0.26870000
   115  H          0.69960000       0.19340000       0.76870000
   116  H          0.80040000       0.69340000       0.73130000
   117  C          0.30674800       0.11002000       0.19429400
   118  C          0.19325200       0.61002000       0.30570600
   119  C          0.69325200       0.88998000       0.80570600
   120  C          0.80674800       0.38998000       0.69429400
   121  H          0.37120000       0.13500000       0.20760000
   122  H          0.12880000       0.63500000       0.29240000
   123  H          0.62880000       0.86500000       0.79240000
   124  H          0.87120000       0.36500000       0.70760000
   125  C          0.25500800       0.26831190       0.16070400
   126  C          0.24499200       0.76831190       0.33929600
   127  C          0.74499200       0.73168810       0.83929600
   128  C          0.75500800       0.23168810       0.66070400
   129  H          0.28440000       0.40060000       0.15100000
   130  H          0.21560000       0.90060000       0.34900000
   131  H          0.71560000       0.59940000       0.84900000
   132  H          0.78440000       0.09940000       0.65100000
   133  C          0.96867300       0.61989190       0.08833400
   134  C          0.53132700       0.11989190       0.41166600
   135  C          0.03132700       0.38010810       0.91166600
   136  C          0.46867300       0.88010810       0.58833400
   137  C          0.87607300       0.66442000       0.09761400
   138  C          0.62392700       0.16442000       0.40238600
   139  C          0.12392700       0.33558000       0.90238600
   140  C          0.37607300       0.83558000       0.59761400
   141  C          0.82871100       0.87212000       0.08355500
   142  C          0.67128900       0.37212000       0.41644500
   143  C          0.17128900       0.12788000       0.91644500
   144  C          0.32871100       0.62788000       0.58355500
   145  H          0.85680000      -0.00780000       0.06890000
   146  H          0.64320000       0.49220000       0.43110000
   147  H          0.14320000       0.00780000       0.93110000
   148  H          0.35680000       0.50780000       0.56890000
   149  C          0.74074100       0.90582000       0.09067500
   150  C          0.75925900       0.40582000       0.40932500
   151  C          0.25925900       0.09418000       0.90932500
   152  C          0.24074100       0.59418000       0.59067500
   153  H          0.70900000       0.04830000       0.08080000
   154  H          0.79100000       0.54830000       0.41920000
   155  H          0.29100000       0.95170000       0.91920000
   156  H          0.20900000       0.45170000       0.58080000
   157  C          0.69924200       0.73222000       0.11209500
   158  C          0.80075800       0.23222000       0.38790500
   159  C          0.30075800       0.26778000       0.88790500
   160  C          0.19924200       0.76778000       0.61209500
   161  H          0.63870000       0.75400000       0.11650000
   162  H          0.86130000       0.25400000       0.38350000
   163  H          0.36130000       0.24600000       0.88350000
   164  H          0.13870000       0.74600000       0.61650000
   165  C          0.74659100       0.52722000       0.12706500
   166  C          0.75340900       0.02722000       0.37293500
   167  C          0.25340900       0.47278000       0.87293500
   168  C          0.24659100       0.97278000       0.62706500
   169  H          0.71880000       0.40870000       0.14220000
   170  H          0.78120000       0.90870000       0.35780000
   171  H          0.28120000       0.59130000       0.85780000
   172  H          0.21880000       0.09130000       0.64220000
   173  C          0.83456200       0.49302000       0.12009500
   174  C          0.66543800      -0.00698000       0.37990500
   175  C          0.16543800       0.50698000       0.87990500
   176  C          0.33456200       0.00698000       0.62009500
   177  H          0.86660000       0.35170000       0.13070000
   178  H          0.63340000       0.85170000       0.36930000
   179  H          0.13340000       0.64830000       0.86930000
   180  H          0.36660000       0.14830000       0.63070000
   181  C          0.66878110       0.01933000       0.23544700
   182  C          0.83121890       0.51933000       0.26455300
   183  C          0.33121890      -0.01933000       0.76455300
   184  C          0.16878110       0.48067000       0.73544700
   185  H          0.69050000       0.00740000       0.27180000
   186  H          0.80950000       0.50740000       0.22820000
   187  H          0.30950000      -0.00740000       0.72820000
   188  H          0.19050000       0.49260000       0.77180000
   189  H          0.72160000       0.04870000       0.22140000
   190  H          0.77840000       0.54870000       0.27860000
   191  H          0.27840000       0.95130000       0.77860000
   192  H          0.22160000       0.45130000       0.72140000
   193  H          0.63860000       0.87330000       0.22190000
   194  H          0.86140000       0.37330000       0.27810000
   195  H          0.36140000       0.12670000       0.77810000
   196  H          0.13860000       0.62670000       0.72190000
   197  C          0.60061900       0.21652000       0.22199500
   198  C          0.89938100       0.71652000       0.27800500
   199  C          0.39938100       0.78348000       0.77800500
   200  C          0.10061900       0.28348000       0.72199500
   201  C          0.57768100       0.35363000       0.25833500
   202  C          0.92231900       0.85363000       0.24166500
   203  C          0.42231900       0.64637000       0.74166500
   204  C          0.07768100       0.14637000       0.75833500
   205  H          0.60400000       0.31940000       0.29250000
   206  H          0.89600000       0.81940000       0.20750000
   207  H          0.39600000       0.68060000       0.70750000
   208  H          0.10400000       0.18060000       0.79250000
   209  C          0.51703100       0.53963000       0.24548600
   210  C          0.98296900       0.03963000       0.25451400
   211  C          0.48296900       0.46037000       0.75451400
   212  C          0.01703100       0.96037000       0.74548600
   213  H          0.50190000       0.63120000       0.27080000
   214  H         -0.00190000       0.13120000       0.22920000
   215  H          0.49810000       0.36880000       0.72920000
   216  H          0.00190000       0.86880000       0.77080000
   217  C          0.47856900       0.59203000       0.19581600
   218  C          0.02143100       0.09203000       0.30418400
   219  C          0.52143100       0.40797000       0.80418400
   220  C          0.97856900       0.90797000       0.69581600
   221  H          0.43780000       0.72090000       0.18690000
   222  H          0.06220000       0.22090000       0.31310000
   223  H          0.56220000       0.27910000       0.81310000
   224  H          0.93780000       0.77910000       0.68690000
   225  C          0.49983900       0.45563000       0.15929500
   226  C          0.00016100       0.95563000       0.34070500
   227  C          0.50016100       0.54437000       0.84070500
   228  C         -0.00016100       0.04437000       0.65929500
   229  H          0.47310000       0.48970000       0.12520000
   230  H          0.02690000      -0.01030000       0.37480000
   231  H          0.52690000       0.51030000       0.87480000
   232  H          0.97310000       0.01030000       0.62520000
   233  C          0.55995800       0.26942000       0.17230500
   234  C          0.94004200       0.76942000       0.32769500
   235  C          0.44004200       0.73058000       0.82769500
   236  C          0.05995800       0.23058000       0.67230500
   237  H          0.57370000       0.17610000       0.14690000
   238  H          0.92630000       0.67610000       0.35310000
   239  H          0.42630000       0.82390000       0.85310000
   240  H          0.07370000       0.32390000       0.64690000
