data_YORCAN
_symmetry_space_group_name_H-M    'P1'
_symmetry_Int_Tables_number       1
loop_
_symmetry_equiv_pos_site_id
_symmetry_equiv_pos_as_xyz
1 x,y,z
_cell_length_a                   9.40243
_cell_length_b                   6.92642
_cell_length_c                   19.94776
_cell_angle_alpha                90.0
_cell_angle_beta                 100.09701
_cell_angle_gamma                90.0
loop_
_atom_site_label
_atom_site_type_symbol
_atom_site_fract_x
_atom_site_fract_y
_atom_site_fract_z
     1  C          0.16995000       0.25000000       0.23872000
     2  C          0.83005000       0.75000000       0.76128000
     3  H          0.07881400       0.25000000       0.25080100
     4  H          0.92118600       0.75000000       0.74919900
     5  C          0.18325000       0.25000000       0.17022000
     6  C          0.81675000       0.75000000       0.82978000
     7  C          0.31875000       0.25000000       0.15162000
     8  C          0.68125000       0.75000000       0.84838000
     9  H          0.32734300       0.25000000       0.10585500
    10  H          0.67265700       0.75000000       0.89414500
    11  C          0.43955000       0.25000000       0.20122000
    12  C          0.56045000       0.75000000       0.79878000
    13  C          0.43085000       0.25000000       0.27022000
    14  C          0.56915000       0.75000000       0.72978000
    15  C          0.29375000       0.25000000       0.28932000
    16  C          0.70625000       0.75000000       0.71068000
    17  C          0.27695000       0.25000000       0.36042000
    18  C          0.72305000       0.75000000       0.63958000
    19  H          0.18480000       0.25000000       0.37143600
    20  H          0.81520000       0.75000000       0.62856400
    21  C          0.48395000       0.25000000       0.52532000
    22  C          0.51605000       0.75000000       0.47468000
    23  C          0.53935000       0.25000000       0.69772000
    24  C          0.46065000       0.75000000       0.30228000
    25  H          0.44235600       0.25000000       0.70200300
    26  H          0.55764400       0.75000000       0.29799700
    27  C          0.64825000       0.25000000       0.75872000
    28  C          0.35175000       0.75000000       0.24128000
    29  C          0.60405000       0.25000000       0.82202000
    30  C          0.39595000       0.75000000       0.17798000
    31  H          0.50597500       0.25000000       0.82401800
    32  H          0.49402500       0.75000000       0.17598200
    33  C          0.70345000       0.25000000       0.88112000
    34  C          0.29655000       0.75000000       0.11888000
    35  C          0.85085000       0.25000000       0.87932000
    36  C          0.14915000       0.75000000       0.12068000
    37  H          0.91808500       0.25000000       0.91951100
    38  H          0.08191500       0.75000000       0.08048900
    39  C          0.89575000       0.25000000       0.81652000
    40  C          0.10425000       0.75000000       0.18348000
    41  C          0.79505000       0.25000000       0.75622000
    42  C          0.20495000       0.75000000       0.24378000
    43  N          0.38874000       0.25000000       0.40835180
    44  N          0.61126000       0.75000000       0.59164820
    45  N          0.45145000       0.25000000       0.58574190
    46  N          0.54855000       0.75000000       0.41425810
    47  N          0.57194000       0.25000000       0.63766180
    48  N          0.42806000       0.75000000       0.36233820
    49  O          0.55394000       0.25000000       0.31619180
    50  O          0.44606000       0.75000000       0.68380820
    51  H          0.53464600       0.25000000       0.35471500
    52  H          0.46535400       0.75000000       0.64528500
    53  O          0.84354000       0.25000000       0.69581170
    54  O          0.15646000       0.75000000       0.30418830
    55  H          0.77446100       0.25000000       0.66435900
    56  H          0.22553900       0.75000000       0.33564100
    57  I         -0.00062400       0.25000000       0.09381200
    58  I          0.00062400       0.75000000       0.90618800
    59  I          0.64300400       0.25000000       0.17323200
    60  I          0.35699600       0.75000000       0.82676800
    61  I          0.11540400       0.25000000       0.81319200
    62  I          0.88459600       0.75000000       0.18680800
    63  I          0.63526400       0.25000000       0.97522200
    64  I          0.36473600       0.75000000       0.02477800
    65  N          0.36795000       0.25000000       0.47372000
    66  N          0.63205000       0.75000000       0.52628000
    67  N          0.61575000       0.25000000       0.50962000
    68  N          0.38425000       0.75000000       0.49038000
    69  H          0.69043200       0.25000000       0.54138600
    70  H          0.30956800       0.75000000       0.45861400
    71  H          0.62622000       0.25000000       0.46760900
    72  H          0.37378000       0.75000000       0.53239100
    73  H          0.28470000       0.25000000       0.48430000
    74  H          0.71530000       0.75000000       0.51570000
    75  C          0.11565000       0.44328000       0.61372000
    76  C          0.88435000       0.94328000       0.38628000
    77  C          0.88435000       0.55672000       0.38628000
    78  C          0.11565000       0.05672000       0.61372000
    79  H          0.08266000       0.44919500       0.65659100
    80  H          0.91734000       0.94919500       0.34340900
    81  H          0.91734000       0.55080500       0.34340900
    82  H          0.08266000       0.05080500       0.65659100
    83  H          0.21812200       0.42273700       0.62152200
    84  H          0.78187800       0.92273700       0.37847800
    85  H          0.78187800       0.57726300       0.37847800
    86  H          0.21812200       0.07726300       0.62152200
    87  H          0.09325200       0.56238700       0.58958900
    88  H          0.90674800       0.06238700       0.41041100
    89  H          0.90674800       0.43761300       0.41041100
    90  H          0.09325200       0.93761300       0.58958900
    91  O          0.08495000       0.25000000       0.49879190
    92  O          0.91505000       0.75000000       0.50120810
    93  S          0.02817150       0.25000000       0.56471700
    94  S          0.97182850       0.75000000       0.43528300
