data_YOTBAN
_symmetry_space_group_name_H-M    'P1'
_symmetry_Int_Tables_number       1
loop_
_symmetry_equiv_pos_site_id
_symmetry_equiv_pos_as_xyz
1 x,y,z
_cell_length_a                   10.933
_cell_length_b                   13.657
_cell_length_c                   17.997
_cell_angle_alpha                69.9
_cell_angle_beta                 73.57
_cell_angle_gamma                88.77
loop_
_atom_site_label
_atom_site_type_symbol
_atom_site_fract_x
_atom_site_fract_y
_atom_site_fract_z
     1  S          0.68299500       0.21658400       0.59077300
     2  S          0.31700500       0.78341600       0.40922700
     3  S          0.81057600       0.15080500       0.73108400
     4  S          0.18942400       0.84919500       0.26891600
     5  C          0.74571170       0.18403130       0.66163120
     6  C          0.25428830       0.81596870       0.33836880
     7  O          0.11790100       0.47336800       0.05703700
     8  O          0.88209900       0.52663200       0.94296300
     9  O          0.12949110       0.67573900       0.98349200
    10  O          0.87050890       0.32426100       0.01650800
    11  N          0.28318120       0.70667100       0.03876800
    12  N          0.71681880       0.29332900       0.96123200
    13  N          0.21659120       0.53629100       0.05901800
    14  N          0.78340880       0.46370900       0.94098200
    15  C          0.54082140       0.52903110       0.20538900
    16  C          0.45917860       0.47096890       0.79461100
    17  C          0.47681140       0.51490110       0.15438900
    18  C          0.52318860       0.48509890       0.84561100
    19  C          0.62597140       0.44446110       0.22219100
    20  C          0.37402860       0.55553890       0.77780900
    21  C          0.32532150       0.81068110       0.98453900
    22  C          0.67467850       0.18931890       0.01546100
    23  C          0.51729140       0.42122110       0.13515900
    24  C          0.48270860       0.57877890       0.86484100
    25  C          0.34767150       0.58907110       0.28015100
    26  C          0.65232850       0.41092890       0.71984900
    27  C          0.52448150       0.20132120       0.20338100
    28  C          0.47551850       0.79867880       0.79661900
    29  C          0.22143140       0.28626110       0.17873900
    30  C          0.77856860       0.71373890       0.82126100
    31  C          0.28468140       0.57508110       0.22853100
    32  C          0.71531860       0.42491890       0.77146900
    33  C          0.64522140       0.40110120       0.29905100
    34  C          0.35477860       0.59889880       0.70094900
    35  C          0.30370150       0.19970110       0.19503100
    36  C          0.69629850       0.80029890       0.80496900
    37  C          0.15884150       0.51246110       0.40052100
    38  C          0.84115850       0.48753890       0.59947900
    39  C          0.25072140       0.48474110       0.13686900
    40  C          0.74927860       0.51525890       0.86313100
    41  C          0.20004140       0.64201120       0.02600100
    42  C          0.79995860       0.35798880       0.97399900
    43  C          0.43479140       0.24365120       0.16250100
    44  C          0.56520860       0.75634880       0.83749900
    45  C          0.13713140       0.46392110       0.21547900
    46  C          0.86286860       0.53607890       0.78452100
    47  C          0.48102150       0.73892110       0.04526100
    48  C          0.51897850       0.26107890       0.95473900
    49  H          0.55716900       0.73069600       0.05929600
    50  H          0.44283100       0.26930400       0.94070400
    51  C          0.61541140       0.27016120       0.21108100
    52  C          0.38458860       0.72983880       0.78891900
    53  C          0.35252140       0.56170110       0.14519900
    54  C          0.64747860       0.43829890       0.85480100
    55  C          0.09292150       0.49788110       0.34639100
    56  C          0.90707850       0.50211890       0.65360900
    57  C          0.61177140       0.37814120       0.17718100
    58  C          0.38822860       0.62185880       0.82281900
    59  C          0.63332140       0.22414120       0.29229110
    60  C          0.36667860       0.77585880       0.70770890
    61  C          0.44861150       0.83188110       0.98787900
    62  C          0.55138850       0.16811890       0.01212100
    63  C          0.64759140       0.28868120       0.33561100
    64  C          0.35240860       0.71131880       0.66438900
    65  C          0.26684150       0.11370110       0.26739100
    66  C          0.73315850       0.88629890       0.73260900
    67  C          0.57763150       0.43933120       0.36581100
    68  C          0.42236850       0.56066880       0.63418900
    69  C          0.29483160       0.03898110       0.39931110
    70  C          0.70516840       0.96101890       0.60068890
    71  C          0.12047160       0.42384120       0.47804100
    72  C          0.87952840       0.57615880       0.52195900
    73  C          0.08242140       0.27509110       0.22959100
    74  C          0.91757860       0.72490890       0.77040900
    75  C          0.29700140       0.37848110       0.13865900
    76  C          0.70299860       0.62151890       0.86134100
    77  C          0.09934150       0.09768120       0.47435100
    78  C          0.90065850       0.90231880       0.52564900
    79  C          0.01220140       0.40161120       0.38836100
    80  C          0.98779860       0.59838880       0.61163900
    81  C          0.43101140       0.35594110       0.12819900
    82  C          0.56898860       0.64405890       0.87180100
    83  C          0.28546160       0.55493110       0.36792100
    84  C          0.71453840       0.44506890       0.63207900
    85  C          0.29380160       0.08866110       0.51866100
    86  C          0.70619840       0.91133890       0.48133900
    87  C          0.70210150       0.70328110       0.21672100
    88  C          0.29789850       0.29671890       0.78327900
    89  C          0.38027140       0.66581110       0.07498900
    90  C          0.61972860       0.33418890       0.92501100
    91  C         -0.00020140       0.33899120       0.34365100
    92  C          0.00020140       0.66100880       0.65634900
    93  C          0.49912150       0.51942110       0.35135100
    94  C          0.50087850       0.48057890       0.64864900
    95  C          0.14388150       0.10936110       0.32928100
    96  C          0.85611850       0.89063890       0.67071900
    97  C          0.15729140       0.52579110       0.26161100
    98  C          0.84270860       0.47420890       0.73838900
    99  C          0.55295150       0.12612120       0.33503110
   100  C          0.44704850       0.87387880       0.66496890
   101  C          0.01646150       0.18103120       0.45905100
   102  C          0.98353850       0.81896880       0.54094900
   103  C          0.50588160       0.16314120       0.46456100
   104  C          0.49411840       0.83685880       0.53543900
   105  C          0.48593150       0.11234120       0.27971110
   106  C          0.51406850       0.88765880       0.72028890
   107  C          0.00144140       0.22628120       0.37968100
   108  C         -0.00144140       0.77371880       0.62031900
   109  C          0.16618160       0.11074120       0.52951100
   110  C          0.83381840       0.88925880       0.47048900
   111  C          0.02930150       0.35490130       0.47026100
   112  C          0.97069850       0.64509870       0.52973900
   113  C          0.16259150       0.06309110       0.41000100
   114  C          0.83740850       0.93690890       0.58999900
   115  C          0.35922160       0.06983110       0.31109110
   116  C          0.64077840       0.93016890       0.68890890
   117  C          0.49250150       0.58799110       0.26452100
   118  C          0.50749850       0.41200890       0.73547900
   119  C          0.37812160       0.51268110       0.41126100
   120  C          0.62187840       0.48731890       0.58873900
   121  C          0.03160150       0.24684130       0.50483100
   122  C          0.96839850       0.75315870       0.49516900
   123  C          0.06024140       0.37173120       0.25555100
   124  C          0.93975860       0.62826880       0.74444900
   125  C          0.58233150       0.25726120       0.42350100
   126  C          0.41766850       0.74273880       0.57649900
   127  C          0.12415160       0.20356120       0.54860100
   128  C          0.87584840       0.79643880       0.45139900
   129  C          0.06388140       0.18849120       0.31471100
   130  C          0.93611860       0.81150880       0.68528900
   131  C          0.35891160       0.05124110       0.45215100
   132  C          0.64108840       0.94875890       0.54784900
   133  C          0.98277850       0.25499120       0.18830110
   134  C          0.01722150       0.74500880       0.81169890
   135  H          0.89740800       0.25054500       0.22526900
   136  H          0.10259200       0.74945500       0.77473100
   137  H          0.99014400       0.31404400       0.13779100
   138  H          0.00985600       0.68595600       0.86220900
   139  C          0.34108160       0.42821120       0.48642100
   140  C          0.65891840       0.57178880       0.51357900
   141  C          0.20968160       0.38248120       0.51963100
   142  C          0.79031840       0.61751880       0.48036900
   143  C          0.96815160       0.70462130       0.18099110
   144  C          0.03184840       0.29537870       0.81900890
   145  H          0.05665400       0.70463600       0.16910100
   146  H          0.94334600       0.29536400       0.83089900
   147  C          0.49058160       0.09678110       0.41930110
   148  C          0.50941840       0.90321890       0.58069890
   149  C          0.42404160       0.34440120       0.50203100
   150  C          0.57595840       0.65559880       0.49796900
   151  C          0.53976160       0.34999120       0.44193100
   152  C          0.46023840       0.65000880       0.55806900
   153  C          0.38444160       0.15760120       0.52609100
   154  C          0.61555840       0.84239880       0.47390900
   155  C          0.75963160       0.67373120       0.27992100
   156  C          0.24036840       0.32626880       0.72007900
   157  H          0.70904000       0.65352300       0.33468900
   158  H          0.29096000       0.34647700       0.66531100
   159  C          0.15617160       0.45120130       0.98155900
   160  C          0.84382840       0.54879870       0.01844100
   161  H          0.16734200       0.51523100       0.93518900
   162  H          0.83265800       0.48476900       0.06481100
   163  H          0.09135400       0.40481900       0.98164100
   164  H          0.90864600       0.59518100       0.01835900
   165  H          0.23538100       0.41874700       0.97747100
   166  H          0.76461900       0.58125300       0.02252900
   167  C          0.89217160       0.67402130       0.26222110
   168  C          0.10782840       0.32597870       0.73777890
   169  H          0.92955600       0.65361600       0.30506500
   170  H          0.07044400       0.34638400       0.69493500
   171  C          0.26556160       0.88362120       0.93366900
   172  C          0.73443840       0.11637880       0.06633100
   173  H          0.18387900       0.86884600       0.93210000
   174  H          0.81612100       0.13115400       0.06790000
   175  C          0.78000160       0.73476120       0.13502110
   176  C          0.21999840       0.26523880       0.86497890
   177  H          0.74303800       0.75560100       0.09198000
   178  H          0.25696200       0.24439900       0.90802000
   179  C          0.55873150       0.70046110       0.23604100
   180  C          0.44126850       0.29953890       0.76395900
   181  H          0.53706300       0.74460700       0.18715700
   182  H          0.46293700       0.25539300       0.81284300
   183  H          0.52523600       0.72939200       0.27932900
   184  H          0.47476400       0.27060800       0.72067100
   185  C          0.45825170       0.00214120       0.88671900
   186  C          0.54174830      -0.00214120       0.11328100
   187  H          0.50193100       0.06690300       0.85285700
   188  H          0.49806900       0.93309700       0.14714300
   189  C          0.51636160       0.92887120       0.93798900
   190  C          0.48363840       0.07112880       0.06201100
   191  H          0.59822600       0.94385100       0.93915800
   192  H          0.40177400       0.05614900       0.06084200
   193  C         -0.00055160       0.15621120       0.16795110
   194  C          0.00055160       0.84378880       0.83204890
   195  C          0.33458170       0.97978120       0.88532890
   196  C          0.66541830       0.02021880       0.11467110
   197  H          0.29747800       0.03078500       0.85102500
   198  H          0.70252200       0.96921500       0.14897500
   199  C          0.21173170       0.26988120       0.55573100
   200  C          0.78826830       0.73011880       0.44426900
   201  C          0.34439170       0.24662120       0.54453100
   202  C          0.65560830       0.75337880       0.45546900
   203  C          0.91214170       0.73530130       0.11729110
   204  C          0.08785830       0.26469870       0.88270890
   205  H          0.96315400       0.75627400       0.06258900
   206  H          0.03684600       0.24372600       0.93741100
   207  C          0.09056180       0.15576130       0.09618120
   208  C          0.90943820       0.84423870       0.90381880
   209  H          0.14257600       0.21647100       0.06142000
   210  H          0.85742400       0.78352900       0.93858000
   211  C          0.92414820       0.06339140       0.21998130
   212  C          0.07585180       0.93660860       0.78001870
   213  H          0.86363600       0.06147900       0.26873500
   214  H          0.13636400       0.93852100       0.73126500
   215  C          0.10522000       0.06560150       0.07550140
   216  C          0.89478000       0.93439850       0.92449860
   217  H          0.16591300       0.06686500       0.02702300
   218  H          0.83408700       0.93313500       0.97297700
   219  C          0.02992000       0.97514850       0.12672160
   220  C          0.97008000       0.02485150       0.87327840
   221  H          0.03948800       0.91515000       0.11295400
   222  H          0.96051200       0.08485000       0.88704600
   223  C          0.93948000       0.97341860       0.19900160
   224  C          0.06052000       0.02658140       0.80099840
   225  H          0.88877600       0.91204500       0.23373500
   226  H          0.11122400       0.08795500       0.76626500
