data_YOTSIJ
_symmetry_space_group_name_H-M    'P1'
_symmetry_Int_Tables_number       1
loop_
_symmetry_equiv_pos_site_id
_symmetry_equiv_pos_as_xyz
1 x,y,z
_cell_length_a                   5.70038
_cell_length_b                   15.2281
_cell_length_c                   25.0812
_cell_angle_alpha                90.0
_cell_angle_beta                 90.0
_cell_angle_gamma                90.0
loop_
_atom_site_label
_atom_site_type_symbol
_atom_site_fract_x
_atom_site_fract_y
_atom_site_fract_z
     1  Br         0.12312000       0.11007700       0.01497400
     2  Br         0.37688000       0.88992300       0.51497400
     3  Br         0.62312000       0.38992300       0.98502600
     4  Br         0.87688000       0.61007700       0.48502600
     5  H          0.19200000       0.16960000       0.07740000
     6  H          0.30800000       0.83040000       0.57740000
     7  H          0.69200000       0.33040000       0.92260000
     8  H          0.80800000       0.66960000       0.42260000
     9  O          0.39710000       0.46373000       0.11892000
    10  O          0.10290000       0.53627000       0.61892000
    11  O          0.89710000       0.03627000       0.88108000
    12  O          0.60290000       0.96373000       0.38108000
    13  N          0.70280000       0.06425000       0.29123000
    14  N          0.79720000       0.93575000       0.79123000
    15  N          0.20280000       0.43575000       0.70877000
    16  N          0.29720000       0.56425000       0.20877000
    17  N          0.34010000       0.19194000       0.11642000
    18  N          0.15990000       0.80806000       0.61642000
    19  N          0.84010000       0.30806000       0.88358000
    20  N          0.65990000       0.69194000       0.38358000
    21  N          0.09610000       0.48074000       0.06113000
    22  N          0.40390000       0.51926000       0.56113000
    23  N          0.59610000       0.01926000       0.93887000
    24  N          0.90390000       0.98074000       0.43887000
    25  C          0.86880000       0.02876000       0.25824000
    26  C          0.63120000       0.97124000       0.75824000
    27  C          0.36880000       0.47124000       0.74176000
    28  C          0.13120000       0.52876000       0.24176000
    29  C          0.95680000       0.09296000       0.22523000
    30  C          0.54320000       0.90704000       0.72523000
    31  C          0.45680000       0.40704000       0.77477000
    32  C          0.04320000       0.59296000       0.27477000
    33  C          0.12820000       0.09415000       0.18043000
    34  C          0.37180000       0.90585000       0.68043000
    35  C          0.62820000       0.40585000       0.81957000
    36  C          0.87180000       0.59415000       0.31957000
    37  C          0.21720000       0.18895000       0.17033000
    38  C          0.28280000       0.81105000       0.67033000
    39  C          0.71720000       0.31105000       0.82967000
    40  C          0.78280000       0.68895000       0.32967000
    41  C          0.40620000       0.28295000       0.10123000
    42  C          0.09380000       0.71705000       0.60123000
    43  C          0.90620000       0.21705000       0.89877000
    44  C          0.59380000       0.78295000       0.39877000
    45  C          0.18510000       0.33655000       0.09083000
    46  C          0.31490000       0.66345000       0.59083000
    47  C          0.68510000       0.16345000       0.90917000
    48  C          0.81490000       0.83655000       0.40917000
    49  C          0.01220000       0.32145000       0.13433000
    50  C          0.48780000       0.67855000       0.63433000
    51  C          0.51220000       0.17855000       0.86567000
    52  C         -0.01220000       0.82145000       0.36567000
    53  C          0.02820000       0.25835000       0.17143000
    54  C          0.47180000       0.74165000       0.67143000
    55  C          0.52820000       0.24165000       0.82857000
    56  C          0.97180000       0.75835000       0.32857000
    57  C          0.86080000       0.25355000       0.21653000
    58  C          0.63920000       0.74645000       0.71653000
    59  C          0.36080000       0.24645000       0.78347000
    60  C          0.13920000       0.75355000       0.28347000
    61  C          0.72080000       0.31856000       0.23704000
    62  C          0.77920000       0.68144000       0.73704000
    63  C          0.22080000       0.18144000       0.76296000
    64  C          0.27920000       0.81856000       0.26296000
    65  C          0.56280000       0.30056000       0.27924000
    66  C          0.93720000       0.69944000       0.77924000
    67  C          0.06280000       0.19944000       0.72076000
    68  C          0.43720000       0.80056000       0.22076000
    69  C          0.54680000       0.21846000       0.30144000
    70  C          0.95320000       0.78154000       0.80144000
    71  C          0.04680000       0.28154000       0.69856000
    72  C          0.45320000       0.71846000       0.19856000
    73  C          0.68480000       0.15316000       0.28184000
    74  C          0.81520000       0.84684000       0.78184000
    75  C          0.18480000       0.34684000       0.71816000
    76  C          0.31520000       0.65316000       0.21816000
    77  C          0.84480000       0.16966000       0.23943000
    78  C          0.65520000       0.83034000       0.73943000
    79  C          0.34480000       0.33034000       0.76057000
    80  C          0.15520000       0.66966000       0.26057000
    81  C          0.54820000       0.13416000       0.11433000
    82  C          0.95180000       0.86584000       0.61433000
    83  C          0.04820000       0.36584000       0.88567000
    84  C          0.45180000       0.63416000       0.38567000
    85  C          0.24020000       0.43415000       0.09013000
    86  C          0.25980000       0.56585000       0.59013000
    87  C          0.74020000       0.06585000       0.90987000
    88  C          0.75980000       0.93415000       0.40987000
    89  C          0.88180000       0.60408000       0.09875000
    90  C          0.61820000       0.39592000       0.59875000
    91  C          0.38180000       0.89592000       0.90125000
    92  C          0.11820000       0.10408000       0.40125000
    93  C          0.08320000       0.57736000       0.06224000
    94  C          0.41680000       0.42264000       0.56224000
    95  C          0.58320000       0.92264000       0.93776000
    96  C          0.91680000       0.07736000       0.43776000
    97  C          0.04920000       0.61337000       0.00665000
    98  C          0.45080000       0.38663000       0.50665000
    99  C          0.54920000       0.88663000       0.99335000
   100  C          0.95080000       0.11337000       0.49335000
   101  C          0.26430000       0.60498000       0.97166000
   102  C          0.23570000       0.39502000       0.47166000
   103  C          0.76430000       0.89502000       0.02834000
   104  C          0.73570000       0.10498000       0.52834000
   105  C          0.23230000       0.63599000       0.92054000
   106  C          0.26770000       0.36401000       0.42054000
   107  C          0.73230000       0.86401000       0.07946000
   108  C          0.76770000       0.13599000       0.57946000
   109  C          0.45840000       0.63459000       0.88764000
   110  C          0.04160000       0.36541000       0.38764000
   111  C          0.95840000       0.86541000       0.11236000
   112  C          0.54160000       0.13459000       0.61236000
   113  H          0.65800000       0.03970000       0.32740000
   114  H          0.84200000       0.96030000       0.82740000
   115  H          0.15800000       0.46030000       0.67260000
   116  H          0.34200000       0.53970000       0.17260000
   117  H          0.95800000       0.46450000       0.03930000
   118  H          0.54200000       0.53550000       0.53930000
   119  H          0.45800000       0.03550000       0.96070000
   120  H          0.04200000       0.96450000       0.46070000
   121  H          0.91000000       0.96600000       0.25700000
   122  H          0.59000000       0.03400000       0.75700000
   123  H          0.41000000       0.53400000       0.74300000
   124  H          0.09000000       0.46600000       0.24300000
   125  H          0.05600000       0.07200000       0.14800000
   126  H          0.44400000       0.92800000       0.64800000
   127  H          0.55600000       0.42800000       0.85200000
   128  H          0.94400000       0.57200000       0.35200000
   129  H          0.25900000       0.05500000       0.18800000
   130  H          0.24100000       0.94500000       0.68800000
   131  H          0.75900000       0.44500000       0.81200000
   132  H          0.74100000       0.55500000       0.31200000
   133  H          0.32100000       0.20400000       0.20000000
   134  H          0.17900000       0.79600000       0.70000000
   135  H          0.82100000       0.29600000       0.80000000
   136  H          0.67900000       0.70400000       0.30000000
   137  H          0.51000000       0.28200000       0.07100000
   138  H         -0.01000000       0.71800000       0.57100000
   139  H          0.01000000       0.21800000       0.92900000
   140  H          0.49000000       0.78200000       0.42900000
   141  H          0.49700000       0.31000000       0.13000000
   142  H          0.00300000       0.69000000       0.63000000
   143  H         -0.00300000       0.19000000       0.87000000
   144  H          0.50300000       0.81000000       0.37000000
   145  H          0.12100000       0.31400000       0.05700000
   146  H          0.37900000       0.68600000       0.55700000
   147  H          0.62100000       0.18600000       0.94300000
   148  H          0.87900000       0.81400000       0.44300000
   149  H          0.87400000       0.36000000       0.13600000
   150  H          0.62600000       0.64000000       0.63600000
   151  H          0.37400000       0.14000000       0.86400000
   152  H          0.12600000       0.86000000       0.36400000
   153  H          0.73500000       0.37800000       0.22300000
   154  H          0.76500000       0.62200000       0.72300000
   155  H          0.23500000       0.12200000       0.77700000
   156  H          0.26500000       0.87800000       0.27700000
   157  H          0.46800000       0.34900000       0.29200000
   158  H          0.03200000       0.65100000       0.79200000
   159  H          0.96800000       0.15100000       0.70800000
   160  H          0.53200000       0.84900000       0.20800000
   161  H          0.43600000       0.20700000       0.33100000
   162  H          0.06400000       0.79300000       0.83100000
   163  H          0.93600000       0.29300000       0.66900000
   164  H          0.56400000       0.70700000       0.16900000
   165  H          0.55900000       0.09900000       0.14600000
   166  H          0.94100000       0.90100000       0.64600000
   167  H          0.05900000       0.40100000       0.85400000
   168  H          0.44100000       0.59900000       0.35400000
   169  H          0.69000000       0.16900000       0.11200000
   170  H          0.81000000       0.83100000       0.61200000
   171  H          0.19000000       0.33100000       0.88800000
   172  H          0.31000000       0.66900000       0.38800000
   173  H          0.54400000       0.09700000       0.08400000
   174  H          0.95600000       0.90300000       0.58400000
   175  H          0.04400000       0.40300000       0.91600000
   176  H          0.45600000       0.59700000       0.41600000
   177  H          0.76400000       0.56000000       0.09500000
   178  H          0.73600000       0.44000000       0.59500000
   179  H          0.26400000       0.94000000       0.90500000
   180  H          0.23600000       0.06000000       0.40500000
   181  H          0.82800000       0.65900000       0.09000000
   182  H          0.67200000       0.34100000       0.59000000
   183  H          0.32800000       0.84100000       0.91000000
   184  H          0.17200000       0.15900000       0.41000000
   185  H          0.93600000       0.60300000       0.13500000
   186  H          0.56400000       0.39700000       0.63500000
   187  H          0.43600000       0.89700000       0.86500000
   188  H          0.06400000       0.10300000       0.36500000
   189  H          0.23200000       0.60200000       0.07600000
   190  H          0.26800000       0.39800000       0.57600000
   191  H          0.73200000       0.89800000       0.92400000
   192  H          0.76800000       0.10200000       0.42400000
   193  H         -0.00600000       0.67300000       0.00700000
   194  H          0.50600000       0.32700000       0.50700000
   195  H          0.49400000       0.82700000       0.99300000
   196  H          0.00600000       0.17300000       0.49300000
   197  H          0.92200000       0.57900000       0.98900000
   198  H          0.57800000       0.42100000       0.48900000
   199  H          0.42200000       0.92100000       0.01100000
   200  H          0.07800000       0.07900000       0.51100000
   201  H          0.32600000       0.54400000       0.97400000
   202  H          0.17400000       0.45600000       0.47400000
   203  H          0.82600000       0.95600000       0.02600000
   204  H          0.67400000       0.04400000       0.52600000
   205  H          0.39700000       0.63800000       0.99000000
   206  H          0.10300000       0.36200000       0.49000000
   207  H          0.89700000       0.86200000       0.01000000
   208  H          0.60300000       0.13800000       0.51000000
   209  H          0.14800000       0.69300000       0.91700000
   210  H          0.35200000       0.30700000       0.41700000
   211  H          0.64800000       0.80700000       0.08300000
   212  H          0.85200000       0.19300000       0.58300000
   213  H          0.10700000       0.59600000       0.90000000
   214  H          0.39300000       0.40400000       0.40000000
   215  H          0.60700000       0.90400000       0.10000000
   216  H          0.89300000       0.09600000       0.60000000
   217  H          0.53700000       0.58000000       0.89600000
   218  H          0.96300000       0.42000000       0.39600000
   219  H          0.03700000       0.92000000       0.10400000
   220  H          0.46300000       0.08000000       0.60400000
   221  H          0.55400000       0.68100000       0.90200000
   222  H          0.94600000       0.31900000       0.40200000
   223  H          0.05400000       0.81900000       0.09800000
   224  H          0.44600000       0.18100000       0.59800000
   225  H          0.44100000       0.64000000       0.85100000
   226  H          0.05900000       0.36000000       0.35100000
   227  H          0.94100000       0.86000000       0.14900000
   228  H          0.55900000       0.14000000       0.64900000
