data_YOTSUX
_symmetry_space_group_name_H-M    'P1'
_symmetry_Int_Tables_number       1
loop_
_symmetry_equiv_pos_site_id
_symmetry_equiv_pos_as_xyz
1 x,y,z
_cell_length_a                   4.3691
_cell_length_b                   29.0786
_cell_length_c                   9.1862
_cell_angle_alpha                90.0
_cell_angle_beta                 102.271
_cell_angle_gamma                90.0
loop_
_atom_site_label
_atom_site_type_symbol
_atom_site_fract_x
_atom_site_fract_y
_atom_site_fract_z
     1  S          0.59897000      -0.00113300       0.40310890
     2  S          0.40103000       0.49886700       0.59689110
     3  S          0.67327000       0.17677300       0.51766880
     4  S          0.32673000       0.67677300       0.48233120
     5  S          0.43948000       0.06264300       0.86157890
     6  S          0.56052000       0.56264300       0.13842110
     7  N          0.66512000       0.08576110       0.48347000
     8  N          0.33488000       0.58576110       0.51653000
     9  H          0.50760000       0.09010000       0.41090000
    10  H          0.49240000       0.59010000       0.58910000
    11  N          0.03933000       0.11376100       0.67307000
    12  N          0.96067000       0.61376100       0.32693000
    13  H          0.13400000       0.13670000       0.72240000
    14  H          0.86600000       0.63670000       0.27760000
    15  N          0.00083000       0.03522100       0.63336000
    16  N         -0.00083000       0.53522100       0.36664000
    17  H          0.06280000       0.00770000       0.65830000
    18  H          0.93720000       0.50770000       0.34170000
    19  C          0.76371000       0.04101120       0.51306000
    20  C          0.23629000       0.54101120       0.48694000
    21  C          0.79432000       0.12334130       0.55836000
    22  C          0.20568000       0.62334130       0.44164000
    23  C          0.14522000       0.07065120       0.71586000
    24  C          0.85478000       0.57065120       0.28414000
    25  S          0.30707000       0.20948300       0.85187880
    26  S          0.69293000       0.70948300       0.14812120
    27  S          0.18347000       0.27161300       0.29683870
    28  S          0.81653000       0.77161300       0.70316130
    29  S          0.05937000       0.09312300       0.19394880
    30  S          0.94063000       0.59312300       0.80605120
    31  N          0.76562000       0.23490110       0.07506000
    32  N          0.23438000       0.73490110       0.92494000
    33  H          0.71390000       0.26270000       0.04870000
    34  H          0.28610000       0.76270000       0.95130000
    35  N          0.08603000       0.18429100       0.22866000
    36  N          0.91397000       0.68429100       0.77134000
    37  H          0.23930000       0.17930000       0.30290000
    38  H          0.76070000       0.67930000       0.69710000
    39  N          0.69913000       0.15683100       0.04027000
    40  N          0.30087000       0.65683100       0.95973000
    41  H          0.59550000       0.13420000      -0.00620000
    42  H          0.40450000       0.63420000       0.00620000
    43  C          0.60382000       0.20013120      -0.00654000
    44  C          0.39618000       0.70013120       0.00654000
    45  C          0.00651000       0.22869130       0.19646000
    46  C         -0.00651000       0.72869130       0.80354000
    47  C          0.94552000       0.14659120       0.15326000
    48  C          0.05448000       0.64659120       0.84674000
    49  N          0.74582000       0.32326110       0.90806000
    50  N          0.25418000       0.82326110       0.09194000
    51  N          0.83052000       0.44857110       0.25866000
    52  N          0.16948000       0.94857110       0.74134000
    53  C          0.82801000       0.36800120       0.94546000
    54  C          0.17199000       0.86800120       0.05454000
    55  C          0.79368900       0.30809150       0.77865000
    56  C          0.20631100       0.80809150       0.22135000
    57  H          0.73450000       0.27810000       0.75120000
    58  H          0.26550000       0.77810000       0.24880000
    59  C          0.92648700       0.33410180       0.68165000
    60  C          0.07351300       0.83410180       0.31835000
    61  H          0.95480000       0.32180000       0.59210000
    62  H          0.04520000       0.82180000       0.40790000
    63  C          0.01508700       0.37839180       0.72055000
    64  C         -0.01508700       0.87839180       0.27945000
    65  H          0.10800000       0.39620000       0.65790000
    66  H          0.89200000       0.89620000       0.34210000
    67  C         -0.03389000       0.39673150       0.85416000
    68  C          0.03389000       0.89673150       0.14584000
    69  C          0.05748800       0.44251160       0.90275000
    70  C          0.94251200       0.94251160       0.09725000
    71  H          0.14980000       0.46130000       0.84240000
    72  H          0.85020000       0.96130000       0.15760000
    73  C          0.01338900       0.45875140       0.03235000
    74  C         -0.01338900       0.95875140       0.96765000
    75  H          0.07590000       0.48860000       0.06120000
    76  H          0.92410000       0.98860000       0.93880000
    77  C          0.87131000       0.43093120       0.12746000
    78  C          0.12869000       0.93093120       0.87254000
    79  C          0.68948900       0.42377150       0.34615000
    80  C          0.31051100       0.92377150       0.65385000
    81  H          0.66790000       0.43590000       0.43710000
    82  H          0.33210000       0.93590000       0.56290000
    83  C          0.57228900       0.37982140       0.30555000
    84  C          0.42771100       0.87982140       0.69445000
    85  H          0.46640000       0.36350000       0.36680000
    86  H          0.53360000       0.86350000       0.63320000
    87  C          0.61459000       0.36127130       0.17616000
    88  C          0.38541000       0.86127130       0.82384000
    89  H          0.54050000       0.33180000       0.14900000
    90  H          0.45950000       0.83180000       0.85100000
    91  C          0.76802000       0.38595120       0.08376000
    92  C          0.23198000       0.88595120       0.91624000
