data_YOTTAE
_symmetry_space_group_name_H-M    'P1'
_symmetry_Int_Tables_number       1
loop_
_symmetry_equiv_pos_site_id
_symmetry_equiv_pos_as_xyz
1 x,y,z
_cell_length_a                   15.6101
_cell_length_b                   13.1991
_cell_length_c                   7.9451
_cell_angle_alpha                90.0
_cell_angle_beta                 102.781
_cell_angle_gamma                90.0
loop_
_atom_site_label
_atom_site_type_symbol
_atom_site_fract_x
_atom_site_fract_y
_atom_site_fract_z
     1  S          0.15000400       0.36808500       0.95945200
     2  S          0.84999600       0.86808500       0.54054800
     3  S          0.84999600       0.63191500       0.04054800
     4  S          0.15000400       0.13191500       0.45945200
     5  S          0.88921700       0.58077400       0.58476300
     6  S          0.11078300       0.08077400       0.91523700
     7  S          0.11078300       0.41922600       0.41523700
     8  S          0.88921700       0.91922600       0.08476300
     9  S          0.88506700       0.18149300       0.54706400
    10  S          0.11493300       0.68149300       0.95293600
    11  S          0.11493300       0.81850700       0.45293600
    12  S          0.88506700       0.31850700       0.04706400
    13  N          0.01436900       0.28926110       0.73740810
    14  N          0.98563100       0.78926110       0.76259190
    15  N          0.98563100       0.71073890       0.26259190
    16  N          0.01436900       0.21073890       0.23740810
    17  H          0.04120000       0.23220000       0.75870000
    18  H          0.95880000       0.73220000       0.74130000
    19  H          0.95880000       0.76780000       0.24130000
    20  H          0.04120000       0.26780000       0.25870000
    21  N          0.89660100       0.38066100       0.58637810
    22  N          0.10339900       0.88066100       0.91362190
    23  N          0.10339900       0.61933900       0.41362190
    24  N          0.89660100       0.11933900       0.08637810
    25  H          0.84590000       0.38290000       0.51670000
    26  H          0.15410000       0.88290000      -0.01670000
    27  H          0.15410000       0.61710000       0.48330000
    28  H          0.84590000       0.11710000       0.01670000
    29  N          0.01195900       0.46170110       0.76883820
    30  N          0.98804100       0.96170110       0.73116180
    31  N          0.98804100       0.53829890       0.23116180
    32  N          0.01195900       0.03829890       0.26883820
    33  H          0.03480000       0.51660000       0.81740000
    34  H          0.96520000       0.01660000       0.68260000
    35  H          0.96520000       0.48340000       0.18260000
    36  H          0.03480000       0.98340000       0.31740000
    37  C          0.05597120       0.37325130       0.81758000
    38  C          0.94402880       0.87325130       0.68242000
    39  C          0.94402880       0.62674870       0.18242000
    40  C          0.05597120       0.12674870       0.31758000
    41  C          0.93389900       0.28869120       0.62698000
    42  C          0.06610100       0.78869120       0.87302000
    43  C          0.06610100       0.71130880       0.37302000
    44  C          0.93389900       0.21130880       0.12698000
    45  C          0.93452900       0.46977120       0.64968000
    46  C          0.06547100       0.96977120       0.85032000
    47  C          0.06547100       0.53022880       0.35032000
    48  C          0.93452900       0.03022880       0.14968000
    49  N          0.41537890       0.10040140       0.81507000
    50  N          0.58462110       0.60040140       0.68493000
    51  N          0.58462110       0.89959860       0.18493000
    52  N          0.41537890       0.39959860       0.31507000
    53  N          0.73003900       0.09807120       0.89598000
    54  N          0.26996100       0.59807120       0.60402000
    55  N          0.26996100       0.90192880       0.10402000
    56  N          0.73003900       0.40192880       0.39598000
    57  C          0.72258860       0.06282170       0.73807000
    58  C          0.27741140       0.56282170       0.76193000
    59  C          0.27741140       0.93717830       0.26193000
    60  C          0.72258860       0.43717830       0.23807000
    61  H          0.77350000       0.04840000       0.70010000
    62  H          0.22650000       0.54840000       0.79990000
    63  H          0.22650000       0.95160000       0.29990000
    64  H          0.77350000       0.45160000       0.20010000
    65  C          0.64146850       0.04625190       0.62547000
    66  C          0.35853150       0.54625190       0.87453000
    67  C          0.35853150       0.95374810       0.37453000
    68  C          0.64146850       0.45374810       0.12547000
    69  H          0.63830000       0.02290000       0.51390000
    70  H          0.36170000       0.52290000      -0.01390000
    71  H          0.36170000       0.97710000       0.48610000
    72  H          0.63830000       0.47710000       0.01390000
    73  C          0.56674860       0.06515180       0.68327000
    74  C          0.43325140       0.56515180       0.81673000
    75  C          0.43325140       0.93484820       0.31673000
    76  C          0.56674860       0.43484820       0.18327000
    77  H          0.51200000       0.05540000       0.61000000
    78  H          0.48800000       0.55540000       0.89000000
    79  H          0.48800000       0.94460000       0.39000000
    80  H          0.51200000       0.44460000       0.11000000
    81  C          0.57222880       0.09888140       0.85137000
    82  C          0.42777120       0.59888140       0.64863000
    83  C          0.42777120       0.90111860       0.14863000
    84  C          0.57222880       0.40111860       0.35137000
    85  C          0.49535880       0.11788140       0.92107000
    86  C          0.50464120       0.61788140       0.57893000
    87  C          0.50464120       0.88211860       0.07893000
    88  C          0.49535880       0.38211860       0.42107000
    89  C          0.34555860       0.12036180       0.87996000
    90  C          0.65444140       0.62036180       0.62004000
    91  C          0.65444140       0.87963820       0.12004000
    92  C          0.34555860       0.37963820       0.37996000
    93  H          0.29030000       0.10950000       0.80940000
    94  H          0.70970000       0.60950000       0.69060000
    95  H          0.70970000       0.89050000       0.19060000
    96  H          0.29030000       0.39050000       0.30940000
    97  C          0.34940840       0.15602190       0.04434000
    98  C          0.65059160       0.65602190       0.45566000
    99  C          0.65059160       0.84397810       0.95566000
   100  C          0.34940840       0.34397810       0.54434000
   101  H          0.29810000       0.16950000       0.08150000
   102  H          0.70190000       0.66950000       0.41850000
   103  H          0.70190000       0.83050000       0.91850000
   104  H          0.29810000       0.33050000       0.58150000
   105  C          0.42945830       0.17125160       0.15184000
   106  C          0.57054170       0.67125160       0.34816000
   107  C          0.57054170       0.82874840       0.84816000
   108  C          0.42945830       0.32874840       0.65184000
   109  H          0.43340000       0.19380000       0.26410000
   110  H          0.56660000       0.69380000       0.23590000
   111  H          0.56660000       0.80620000       0.73590000
   112  H          0.43340000       0.30620000       0.76410000
   113  C          0.50628870       0.15233140       0.09063000
   114  C          0.49371130       0.65233140       0.40937000
   115  C          0.49371130       0.84766860       0.90937000
   116  C          0.50628870       0.34766860       0.59063000
   117  C          0.59305850       0.16712150       0.19323000
   118  C          0.40694150       0.66712150       0.30677000
   119  C          0.40694150       0.83287850       0.80677000
   120  C          0.59305850       0.33287850       0.69323000
   121  H          0.59990000       0.18860000       0.30690000
   122  H          0.40010000       0.68860000       0.19310000
   123  H          0.40010000       0.81140000       0.69310000
   124  H          0.59990000       0.31140000       0.80690000
   125  C          0.66542870       0.15082150       0.12953000
   126  C          0.33457130       0.65082150       0.37047000
   127  C          0.33457130       0.84917850       0.87047000
   128  C          0.66542870       0.34917850       0.62953000
   129  H          0.72100000       0.16250000       0.19830000
   130  H          0.27900000       0.66250000       0.30170000
   131  H          0.27900000       0.83750000       0.80170000
   132  H          0.72100000       0.33750000       0.69830000
   133  C          0.65637880       0.11568130       0.95688000
   134  C          0.34362120       0.61568130       0.54312000
   135  C          0.34362120       0.88431870       0.04312000
   136  C          0.65637880       0.38431870       0.45688000
