data_YUCKEQ
_symmetry_space_group_name_H-M    'P1'
_symmetry_Int_Tables_number       1
loop_
_symmetry_equiv_pos_site_id
_symmetry_equiv_pos_as_xyz
1 x,y,z
_cell_length_a                   5.10256
_cell_length_b                   11.075413
_cell_length_c                   12.529816
_cell_angle_alpha                98.7634
_cell_angle_beta                 94.7074
_cell_angle_gamma                101.8064
loop_
_atom_site_label
_atom_site_type_symbol
_atom_site_fract_x
_atom_site_fract_y
_atom_site_fract_z
     1  S          0.60649140       0.30691700       0.00890600
     2  S          0.39350860       0.69308300      -0.00890600
     3  O          0.54494000       0.24782000       0.88921150
     4  O          0.45506000       0.75218000       0.11078850
     5  C          0.58437000       0.17973000       0.08152000
     6  C          0.41563000       0.82027000       0.91848000
     7  H          0.41210000       0.11980000       0.05750000
     8  H          0.58790000       0.88020000       0.94250000
     9  H          0.59560000       0.21130000       0.15960000
    10  H          0.40440000       0.78870000       0.84040000
    11  H          0.73300000       0.13800000       0.06750000
    12  H          0.26700000       0.86200000       0.93250000
    13  C          0.30917000       0.35314000       0.04783000
    14  C          0.69083000       0.64686000       0.95217000
    15  H          0.26710000       0.41500000       0.00490000
    16  H          0.73290000       0.58500000      -0.00490000
    17  H          0.33760000       0.38990000       0.12520000
    18  H          0.66240000       0.61010000       0.87480000
    19  H          0.15860000       0.27970000       0.03480000
    20  H          0.84140000       0.72030000       0.96520000
    21  O          0.95485000       0.04732000       0.89930170
    22  O          0.04515000       0.95268000       0.10069830
    23  O          0.02815000       0.21072000       0.28354170
    24  O         -0.02815000       0.78928000       0.71645830
    25  O          0.41465000       0.32952000       0.34990170
    26  O          0.58535000       0.67048000       0.65009830
    27  O          0.68125000       0.00802000       0.75041190
    28  O          0.31875000      -0.00802000       0.24958810
    29  N          0.31895000       0.24192000       0.65316180
    30  N          0.68105000       0.75808000       0.34683820
    31  N          0.88525000       0.11152000       0.58220180
    32  N          0.11475000       0.88848000       0.41779820
    33  N          0.59215000       0.36102000       0.55529180
    34  N          0.40785000       0.63898000       0.44470820
    35  H          0.62040000       0.38630000       0.49310000
    36  H          0.37960000       0.61370000       0.50690000
    37  N          0.79145000       0.38462000       0.74252000
    38  N          0.20855000       0.61538000       0.25748000
    39  N          0.71475000       0.09352000       0.40588190
    40  N          0.28525000       0.90648000       0.59411810
    41  H          0.57020000       0.04330000       0.42070000
    42  H          0.42980000       0.95670000       0.57930000
    43  H          0.72420000       0.11060000       0.33980000
    44  H          0.27580000       0.88940000       0.66020000
    45  N          0.89425000       0.05842000       0.80532000
    46  N          0.10575000       0.94158000       0.19468000
    47  N          0.02725000       0.45232000       0.80112000
    48  N         -0.02725000       0.54768000       0.19888000
    49  N          0.01535000       0.49113000       0.63482000
    50  N         -0.01535000       0.50887000       0.36518000
    51  N          0.08795000       0.13432000       0.76342000
    52  N          0.91205000       0.86568000       0.23658000
    53  H          0.23310000       0.17140000       0.80860000
    54  H          0.76690000       0.82860000       0.19140000
    55  N          0.20095000       0.25742000       0.36212000
    56  N          0.79905000       0.74258000       0.63788000
    57  N          0.15545000       0.51393000       0.73582000
    58  N          0.84455000       0.48607000       0.26418000
    59  C          0.16106000       0.22753000       0.46612000
    60  C          0.83894000       0.77247000       0.53388000
    61  C          0.78976000       0.40983000       0.64282000
    62  C          0.21024000       0.59017000       0.35718000
    63  C          0.91964000       0.14373000       0.48362000
    64  C          0.08036000       0.85627000       0.51638000
    65  C          0.35666000       0.27673000       0.55802000
    66  C          0.64334000       0.72327000       0.44198000
    67  C          0.08796000       0.16123000       0.65952000
    68  C          0.91204000       0.83877000       0.34048000
    69  H          0.69370000       0.34030000       0.78130000
    70  H          0.30630000       0.65970000       0.21870000
