data_YUCVAU
_symmetry_space_group_name_H-M    'P1'
_symmetry_Int_Tables_number       1
loop_
_symmetry_equiv_pos_site_id
_symmetry_equiv_pos_as_xyz
1 x,y,z
_cell_length_a                   20.961313
_cell_length_b                   9.30215
_cell_length_c                   13.37908
_cell_angle_alpha                90.0
_cell_angle_beta                 100.39901
_cell_angle_gamma                90.0
loop_
_atom_site_label
_atom_site_type_symbol
_atom_site_fract_x
_atom_site_fract_y
_atom_site_fract_z
     1  S          0.79794300       0.50222600       0.43112400
     2  S          0.20205700       0.00222600       0.06887600
     3  S          0.20205700       0.49777400       0.56887600
     4  S          0.79794300      -0.00222600       0.93112400
     5  S          0.69963300       0.52406700       0.41760500
     6  S          0.30036700       0.02406700       0.08239500
     7  S          0.30036700       0.47593300       0.58239500
     8  S          0.69963300       0.97593300       0.91760500
     9  O          0.97759700       0.25743170       0.48239120
    10  O          0.02240300       0.75743170       0.01760880
    11  O          0.02240300       0.74256830       0.51760880
    12  O          0.97759700       0.24256830       0.98239120
    13  H          0.00090000       0.28260000       0.44250000
    14  H         -0.00090000       0.78260000       0.05750000
    15  H         -0.00090000       0.71740000       0.55750000
    16  H          0.00090000       0.21740000       0.94250000
    17  O          0.92221700       0.45284170       0.42348120
    18  O          0.07778300       0.95284170       0.07651880
    19  O          0.07778300       0.54715830       0.57651880
    20  O          0.92221700       0.04715830       0.92348120
    21  O          0.57347900       0.56322000       0.37477190
    22  O          0.42652100       0.06322000       0.12522810
    23  O          0.42652100       0.43678000       0.62522810
    24  O          0.57347900       0.93678000       0.87477190
    25  O          0.52542900       0.77402000       0.37732000
    26  O          0.47457100       0.27402000       0.12268000
    27  O          0.47457100       0.22598000       0.62268000
    28  O          0.52542900       0.72598000       0.87732000
    29  H          0.49550000       0.73190000       0.34110000
    30  H          0.50450000       0.23190000       0.15890000
    31  H          0.50450000       0.26810000       0.65890000
    32  H          0.49550000       0.76810000       0.84110000
    33  C          0.88198900       0.30872000       0.54383140
    34  C          0.11801100       0.80872000       0.95616860
    35  C          0.11801100       0.69128000       0.45616860
    36  C          0.88198900       0.19128000       0.04383140
    37  C          0.82086900       0.37492000       0.53162140
    38  C          0.17913100       0.87492000       0.96837860
    39  C          0.17913100       0.62508000       0.46837860
    40  C          0.82086900       0.12508000       0.03162140
    41  C          0.77903110       0.33732000       0.59685160
    42  C          0.22096890       0.83732000       0.90314840
    43  C          0.22096890       0.66268000       0.40314840
    44  C          0.77903110       0.16268000       0.09685160
    45  H          0.73830000       0.38010000       0.58960000
    46  H          0.26170000       0.88010000       0.91040000
    47  H          0.26170000       0.61990000       0.41040000
    48  H          0.73830000       0.11990000       0.08960000
    49  C          0.79756110       0.23672000       0.67258160
    50  C          0.20243890       0.73672000       0.82741840
    51  C          0.20243890       0.76328000       0.32741840
    52  C          0.79756110       0.26328000       0.17258160
    53  H          0.76900000       0.21210000       0.71550000
    54  H          0.23100000       0.71210000       0.78450000
    55  H          0.23100000       0.78790000       0.28450000
    56  H          0.76900000       0.28790000       0.21550000
    57  C          0.85734110       0.17252000       0.68548160
    58  C          0.14265890       0.67252000       0.81451840
    59  C          0.14265890       0.82748000       0.31451840
    60  C          0.85734110       0.32748000       0.18548160
    61  H          0.86960000       0.10590000       0.73720000
    62  H          0.13040000       0.60590000       0.76280000
    63  H          0.13040000       0.89410000       0.26280000
    64  H          0.86960000       0.39410000       0.23720000
    65  C          0.89902100       0.20812000       0.62092140
    66  C          0.10097900       0.70812000       0.87907860
    67  C          0.10097900       0.79188000       0.37907860
    68  C          0.89902100       0.29188000       0.12092140
    69  H          0.93940000       0.16400000       0.62900000
    70  H          0.06060000       0.66400000       0.87100000
    71  H          0.06060000       0.83600000       0.37100000
    72  H          0.93940000       0.33600000       0.12900000
    73  C          0.92901900       0.34682000       0.47711140
    74  C          0.07098100       0.84682000       0.02288860
    75  C          0.07098100       0.65318000       0.52288860
    76  C          0.92901900       0.15318000       0.97711140
    77  C          0.62873100       0.74702000       0.47683180
    78  C          0.37126900       0.24702000       0.02316820
    79  C          0.37126900       0.25298000       0.52316820
    80  C          0.62873100       0.75298000       0.97683180
    81  C          0.68896100       0.67852000       0.49235160
    82  C          0.31103900       0.17852000       0.00764840
    83  C          0.31103900       0.32148000       0.50764840
    84  C          0.68896100       0.82148000      -0.00764840
    85  C          0.73932100       0.73532000       0.56369160
    86  C          0.26067900       0.23532000       0.93630840
    87  C          0.26067900       0.26468000       0.43630840
    88  C          0.73932100       0.76468000       0.06369160
    89  H          0.77970000       0.69080000       0.57480000
    90  H          0.22030000       0.19080000       0.92520000
    91  H          0.22030000       0.30920000       0.42520000
    92  H          0.77970000       0.80920000       0.07480000
    93  C          0.72980130       0.85663000       0.61777190
    94  C          0.27019870       0.35663000       0.88222810
    95  C          0.27019870       0.14337000       0.38222810
    96  C          0.72980130       0.64337000       0.11777190
    97  H          0.76370000       0.89270000       0.66560000
    98  H          0.23630000       0.39270000       0.83440000
    99  H          0.23630000       0.10730000       0.33440000
   100  H          0.76370000       0.60730000       0.16560000
   101  C          0.67106140       0.92493000       0.60212000
   102  C          0.32893860       0.42493000       0.89788000
   103  C          0.32893860       0.07507000       0.39788000
   104  C          0.67106140       0.57507000       0.10212000
   105  H          0.66510000       0.00740000       0.63860000
   106  H          0.33490000       0.50740000       0.86140000
   107  H          0.33490000      -0.00740000       0.36140000
   108  H          0.66510000       0.49260000       0.13860000
   109  C          0.62084130       0.87013000       0.53172000
   110  C          0.37915870       0.37013000       0.96828000
   111  C          0.37915870       0.12987000       0.46828000
   112  C          0.62084130       0.62987000       0.03172000
   113  H          0.58090000       0.91650000       0.52080000
   114  H          0.41910000       0.41650000       0.97920000
   115  H          0.41910000       0.08350000       0.47920000
   116  H          0.58090000       0.58350000       0.02080000
   117  C          0.57309110       0.68613000       0.40402000
   118  C          0.42690890       0.18613000       0.09598000
   119  C          0.42690890       0.31387000       0.59598000
   120  C          0.57309110       0.81387000       0.90402000
   121  N          0.04598800       0.32215190       0.34271120
   122  N          0.95401200       0.82215190       0.15728880
   123  N          0.95401200       0.67784810       0.65728880
   124  N          0.04598800       0.17784810       0.84271120
   125  N          0.42580100       0.64733000       0.26945190
   126  N          0.57419900       0.14733000       0.23054810
   127  N          0.57419900       0.35267000       0.73054810
   128  N          0.42580100       0.85267000       0.76945190
   129  C          0.12821100       0.41852000       0.07801150
   130  C          0.87178900       0.91852000       0.42198850
   131  C          0.87178900       0.58148000       0.92198850
   132  C          0.12821100       0.08148000       0.57801150
   133  H          0.09630000       0.46990000       0.02950000
   134  H          0.90370000       0.96990000       0.47050000
   135  H          0.90370000       0.53010000       0.97050000
   136  H          0.09630000       0.03010000       0.52950000
   137  H          0.13800000       0.32920000       0.04650000
   138  H          0.86200000       0.82920000       0.45350000
   139  H          0.86200000       0.67080000       0.95350000
   140  H          0.13800000       0.17080000       0.54650000
   141  C          0.19002100       0.50902000       0.10170150
   142  C          0.80997900       0.00902000       0.39829850
   143  C          0.80997900       0.49098000       0.89829850
   144  C          0.19002100      -0.00902000       0.60170150
   145  H          0.20470000       0.53160000       0.03870000
   146  H          0.79530000       0.03160000       0.46130000
   147  H          0.79530000       0.46840000       0.96130000
   148  H          0.20470000       0.96840000       0.53870000
   149  H          0.18040000       0.59880000       0.13270000
   150  H          0.81960000       0.09880000       0.36730000
   151  H          0.81960000       0.40120000       0.86730000
   152  H          0.18040000       0.90120000       0.63270000
   153  C          0.24366100       0.43262000       0.17221160
   154  C          0.75633900       0.93262000       0.32778840
   155  C          0.75633900       0.56738000       0.82778840
   156  C          0.24366100       0.06738000       0.67221160
   157  H          0.22800000       0.41020000       0.23430000
   158  H          0.77200000       0.91020000       0.26570000
   159  H          0.77200000       0.58980000       0.76570000
   160  H          0.22800000       0.08980000       0.73430000
   161  H          0.25170000       0.34190000       0.14090000
   162  H          0.74830000       0.84190000       0.35910000
   163  H          0.74830000       0.65810000       0.85910000
   164  H          0.25170000       0.15810000       0.64090000
   165  C          0.03926100       0.45102000       0.29882160
   166  C          0.96073900       0.95102000       0.20117840
   167  C          0.96073900       0.54898000       0.70117840
   168  C          0.03926100       0.04898000       0.79882160
   169  H          0.01580000       0.52080000       0.32640000
   170  H          0.98420000       0.02080000       0.17360000
   171  H          0.98420000       0.47920000       0.67360000
   172  H          0.01580000       0.97920000       0.82640000
   173  C          0.06527100       0.48622000       0.21468160
   174  C          0.93472900      -0.01378000       0.28531840
   175  C          0.93472900       0.51378000       0.78531840
   176  C          0.06527100       0.01378000       0.71468160
   177  H          0.05980000       0.57830000       0.18750000
   178  H          0.94020000       0.07830000       0.31250000
   179  H          0.94020000       0.42170000       0.81250000
   180  H          0.05980000       0.92170000       0.68750000
   181  C          0.09958900       0.38452000       0.17048140
   182  C          0.90041100       0.88452000       0.32951860
   183  C          0.90041100       0.61548000       0.82951860
   184  C          0.09958900       0.11548000       0.67048140
   185  C          0.10602100       0.25022000       0.21587160
   186  C          0.89397900       0.75022000       0.28412840
   187  C          0.89397900       0.74978000       0.78412840
   188  C          0.10602100       0.24978000       0.71587160
   189  H          0.12820000       0.17760000       0.18890000
   190  H          0.87180000       0.67760000       0.31110000
   191  H          0.87180000       0.82240000       0.81110000
   192  H          0.12820000       0.32240000       0.68890000
   193  C          0.07943100       0.22452000       0.30104170
   194  C          0.92056900       0.72452000       0.19895830
   195  C          0.92056900       0.77548000       0.69895830
   196  C          0.07943100       0.27548000       0.80104170
   197  H          0.08520000       0.13410000       0.33100000
   198  H          0.91480000       0.63410000       0.16900000
   199  H          0.91480000       0.86590000       0.66900000
   200  H          0.08520000       0.36590000       0.83100000
   201  C          0.41408130       0.51473000       0.29883000
   202  C          0.58591870       0.01473000       0.20117000
   203  C          0.58591870       0.48527000       0.70117000
   204  C          0.41408130      -0.01473000       0.79883000
   205  H          0.44680000       0.46700000       0.34270000
   206  H          0.55320000       0.96700000       0.15730000
   207  H          0.55320000       0.53300000       0.65730000
   208  H          0.44680000       0.03300000       0.84270000
   209  C          0.35668120       0.44493000       0.26802000
   210  C          0.64331880       0.94493000       0.23198000
   211  C          0.64331880       0.55507000       0.73198000
   212  C          0.35668120       0.05507000       0.76802000
   213  H          0.35080000       0.35320000       0.29250000
   214  H          0.64920000       0.85320000       0.20750000
   215  H          0.64920000       0.64680000       0.70750000
   216  H          0.35080000       0.14680000       0.79250000
   217  C          0.30750100       0.50922000       0.20091160
   218  C          0.69249900       0.00922000       0.29908840
   219  C          0.69249900       0.49078000       0.79908840
   220  C          0.30750100      -0.00922000       0.70091160
   221  C          0.32103110       0.64303000       0.16628190
   222  C          0.67896890       0.14303000       0.33371810
   223  C          0.67896890       0.35697000       0.83371810
   224  C          0.32103110       0.85697000       0.66628190
   225  H          0.29030000       0.68980000       0.11850000
   226  H          0.70970000       0.18980000       0.38150000
   227  H          0.70970000       0.31020000       0.88150000
   228  H          0.29030000       0.81020000       0.61850000
   229  C          0.37976120       0.70813000       0.20182000
   230  C          0.62023880       0.20813000       0.29818000
   231  C          0.62023880       0.29187000       0.79818000
   232  C          0.37976120       0.79187000       0.70182000
   233  H          0.38740000       0.79870000       0.17710000
   234  H          0.61260000       0.29870000       0.32290000
   235  H          0.61260000       0.20130000       0.82290000
   236  H          0.38740000       0.70130000       0.67710000
