data_YUDGUC
_symmetry_space_group_name_H-M    'P1'
_symmetry_Int_Tables_number       1
loop_
_symmetry_equiv_pos_site_id
_symmetry_equiv_pos_as_xyz
1 x,y,z
_cell_length_a                   8.51557
_cell_length_b                   10.52039
_cell_length_c                   13.916112
_cell_angle_alpha                78.063211
_cell_angle_beta                 72.70081
_cell_angle_gamma                83.357112
loop_
_atom_site_label
_atom_site_type_symbol
_atom_site_fract_x
_atom_site_fract_y
_atom_site_fract_z
     1  C          0.58305000       0.83414000       0.39253000
     2  C          0.41695000       0.16586000       0.60747000
     3  C          0.45935000       0.79274000       0.36683000
     4  C          0.54065000       0.20726000       0.63317000
     5  C          0.59545000       0.86624000       0.18953000
     6  C          0.40455000       0.13376000       0.81047000
     7  C          0.72445000       0.91464000       0.21353000
     8  C          0.27555000       0.08536000       0.78647000
     9  C          0.71945000       0.89834000       0.31783000
    10  C          0.28055000       0.10166000       0.68217000
    11  C          0.84706000       0.94695000       0.34184000
    12  C          0.15294000       0.05305000       0.65816000
    13  H          0.84820000       0.93510000       0.41110000
    14  H          0.15180000       0.06490000       0.58890000
    15  C          0.97216000       0.01255000       0.26464000
    16  C          0.02784000       0.98745000       0.73536000
    17  H          0.05740000       0.04580000       0.28170000
    18  H          0.94260000       0.95420000       0.71830000
    19  C          0.97236000       0.02935000       0.16264000
    20  C          0.02764000       0.97065000       0.83736000
    21  H          0.05710000       0.07510000       0.11070000
    22  H          0.94290000       0.92490000       0.88930000
    23  C          0.85216000       0.98085000       0.13654000
    24  C          0.14784000       0.01915000       0.86346000
    25  H          0.85440000      -0.00830000       0.06660000
    26  H          0.14560000       0.00830000       0.93340000
    27  C          0.31385000       0.73154000       0.44383000
    28  C          0.68615000       0.26846000       0.55617000
    29  C          0.17836000       0.81155000       0.48624000
    30  C          0.82164000       0.18845000       0.51376000
    31  H          0.17950000       0.90340000       0.46600000
    32  H          0.82050000       0.09660000       0.53400000
    33  C          0.04106000       0.75406000       0.55884000
    34  C          0.95894000       0.24594000       0.44116000
    35  H          0.94890000       0.80710000       0.58900000
    36  H          0.05110000       0.19290000       0.41100000
    37  C          0.03947000       0.61956000       0.58674000
    38  C          0.96053000       0.38044000       0.41326000
    39  H          0.94480000       0.58090000       0.63460000
    40  H          0.05520000       0.41910000       0.36540000
    41  C          0.17428000       0.54106000       0.54554000
    42  C          0.82572000       0.45894000       0.45446000
    43  H          0.17260000       0.44910000       0.56590000
    44  H          0.82740000       0.55090000       0.43410000
    45  C          0.31176000       0.59675000       0.47424000
    46  C          0.68824000       0.40325000       0.52576000
    47  H          0.40450000       0.54300000       0.44610000
    48  H          0.59550000       0.45700000       0.55390000
    49  C          0.39736000       0.80504000       0.11303000
    50  C          0.60264000       0.19496000       0.88697000
    51  C          0.34635000       0.77424000       0.21963000
    52  C          0.65365000       0.22576000       0.78037000
    53  C          0.19686000       0.71655000       0.26754000
    54  C          0.80314000       0.28345000       0.73246000
    55  H          0.15890000       0.69510000       0.34000000
    56  H          0.84110000       0.30490000       0.66000000
    57  C          0.10446000       0.69105000       0.20784000
    58  C          0.89554000       0.30895000       0.79216000
    59  H          0.00330000       0.65020000       0.23990000
    60  H         -0.00330000       0.34980000       0.76010000
    61  C          0.15736000       0.72435000       0.10044000
    62  C          0.84264000       0.27565000       0.89956000
    63  H          0.09070000       0.70750000       0.06090000
    64  H          0.90930000       0.29250000       0.93910000
    65  C          0.30466000       0.78095000       0.05234000
    66  C          0.69534000       0.21905000       0.94766000
    67  H          0.34200000       0.80290000       0.97980000
    68  H          0.65800000       0.19710000       0.02020000
    69  I          0.57559400       0.80838300       0.54914200
    70  I          0.42440600       0.19161700       0.45085800
    71  N          0.46554000       0.81063000       0.26193000
    72  N          0.53446000       0.18937000       0.73807000
    73  S          0.58723140       0.87461120       0.06709800
    74  S          0.41276860       0.12538880       0.93290200
    75  C          0.79161000       0.35066000       0.20427000
    76  C          0.20839000       0.64934000       0.79573000
    77  H          0.89200000       0.36870000       0.14780000
    78  H          0.10800000       0.63130000       0.85220000
    79  H          0.73720000       0.27950000       0.19360000
    80  H          0.26280000       0.72050000       0.80640000
    81  H          0.82020000       0.32530000       0.26900000
    82  H          0.17980000       0.67470000       0.73100000
    83  C          0.63581700       0.50158000       0.08418000
    84  C          0.36418300       0.49842000       0.91582000
    85  H          0.55720000       0.57420000       0.07110000
    86  H          0.44280000       0.42580000       0.92890000
    87  H          0.59500000       0.42030000       0.07940000
    88  H          0.40500000       0.57970000       0.92060000
    89  H          0.74280000       0.51630000       0.03310000
    90  H          0.25720000       0.48370000       0.96690000
    91  O          0.75267000       0.60304000       0.20175000
    92  O          0.24733000       0.39696000       0.79825000
    93  S          0.65802000       0.49031160       0.20817150
    94  S          0.34198000       0.50968840       0.79182850
    95  I          0.63258400       0.81621400       0.79182300
    96  I          0.36741600       0.18378600       0.20817700
