data_YUFGEN
_symmetry_space_group_name_H-M    'P1'
_symmetry_Int_Tables_number       1
loop_
_symmetry_equiv_pos_site_id
_symmetry_equiv_pos_as_xyz
1 x,y,z
_cell_length_a                   9.99453
_cell_length_b                   13.43464
_cell_length_c                   17.82205
_cell_angle_alpha                81.01601
_cell_angle_beta                 78.33501
_cell_angle_gamma                86.04601
loop_
_atom_site_label
_atom_site_type_symbol
_atom_site_fract_x
_atom_site_fract_y
_atom_site_fract_z
     1  O          0.07817900       0.81970700       0.42805500
     2  O          0.92182100       0.18029300       0.57194500
     3  O          0.75808900       0.00375800       0.37618600
     4  O          0.24191100      -0.00375800       0.62381400
     5  C          0.87862860       0.92118100       0.47164800
     6  C          0.12137140       0.07881900       0.52835200
     7  O          0.68033890       0.01790800       0.52421700
     8  O          0.31966110       0.98209200       0.47578300
     9  O          0.94295880       0.83949900       0.69569600
    10  O          0.05704120       0.16050100       0.30430400
    11  O          0.93279880       0.92229900       0.26132600
    12  O          0.06720120       0.07770100       0.73867400
    13  C          0.06047140       0.84258100       0.35280800
    14  C          0.93952860       0.15741900       0.64719200
    15  O          0.29284120       0.79033800       0.09083600
    16  O          0.70715880       0.20966200       0.90916400
    17  C          0.01459140       0.82614100       0.56068800
    18  C          0.98540860       0.17385900       0.43931200
    19  H          0.09000000       0.78180000       0.56940000
    20  H          0.91000000       0.21820000       0.43060000
    21  C          0.95351860       0.90389100       0.33513800
    22  C          0.04648140       0.09610900       0.66486200
    23  C          0.98908860       0.85667100       0.48666800
    24  C          0.01091140       0.14332900       0.51333200
    25  C          0.16565140       0.79281100       0.29999800
    26  C          0.83434860       0.20718900       0.70000200
    27  C          0.81300850       0.92750110       0.60948900
    28  C          0.18699150       0.07249890       0.39051100
    29  H          0.75330000       0.95130000       0.65210000
    30  H          0.24670000       0.04870000       0.34790000
    31  C          0.85639860       0.94771100       0.39377800
    32  C          0.14360140       0.05228900       0.60622200
    33  O          0.46858120       0.64891900       0.15263700
    34  O          0.53141880       0.35108100       0.84736300
    35  C          0.17733140       0.81543100       0.21929800
    36  C          0.82266860       0.18456900       0.78070200
    37  H          0.11450000       0.86290000       0.19850000
    38  H          0.88550000       0.13710000       0.80150000
    39  C          0.78947860       0.95619100       0.53561900
    40  C          0.21052140       0.04380900       0.46438100
    41  C          0.35853150       0.67451110       0.27892900
    42  C          0.64146850       0.32548890       0.72107100
    43  H          0.42020000       0.62580000       0.29940000
    44  H          0.57980000       0.37420000       0.70060000
    45  C          0.92536850       0.86297110       0.62157800
    46  C          0.07463150       0.13702890       0.37842200
    47  C          0.37011150       0.69763110       0.19930900
    48  C          0.62988850       0.30236890       0.80069100
    49  C          0.27845150       0.76978110       0.16984800
    50  C          0.72154850       0.23021890       0.83015200
    51  C          0.25874140       0.72113100       0.32890800
    52  C          0.74125860       0.27886900       0.67109200
    53  H          0.25300000       0.70460000       0.38320000
    54  H          0.74700000       0.29540000       0.61680000
    55  H          0.22320000       0.83381500       0.07881200
    56  H          0.77680000       0.16618500       0.92118800
    57  H          0.87380000       0.97141600       0.25401200
    58  H          0.12620000       0.02858400       0.74598800
    59  H          0.46620000       0.66441700       0.10261400
    60  H          0.53380000       0.33558300       0.89738600
    61  H          0.68380000       0.02831700       0.47251300
    62  H          0.31620000       0.97168300       0.52748700
    63  H          0.01120000       0.79331600       0.69781200
    64  H          0.98880000       0.20668400       0.30218800
    65  N          0.77559880       0.06130900       0.18882700
    66  N          0.22440120       0.93869100       0.81117300
    67  N          0.63250870       0.20387900       0.09700700
    68  N          0.36749130       0.79612100       0.90299300
    69  C          0.83804850       0.14155110       0.14395800
    70  C          0.16195150       0.85844890       0.85604200
    71  C          0.57128850       0.12301110       0.14078800
    72  C          0.42871150       0.87698890       0.85921200
    73  C          0.76461840       0.21488110       0.09856800
    74  C          0.23538160       0.78511890       0.90143200
    75  C          0.97839840       0.15438120       0.14268900
    76  C          0.02160160       0.84561880       0.85731100
    77  H          0.02860000       0.10510000       0.17130000
    78  H          0.97140000       0.89490000       0.82870000
    79  C          0.57284840       0.96908110       0.23659900
    80  C          0.42715160       0.03091890       0.76340100
    81  H          0.61910000       0.92220000       0.26920000
    82  H          0.38090000       0.07780000       0.73080000
    83  C          0.64348850       0.05143110       0.18868800
    84  C          0.35651150       0.94856890       0.81131200
    85  C          0.83376820       0.30110120       0.05543900
    86  C          0.16623180       0.69889880       0.94456100
    87  H          0.78660000       0.35110000       0.02560000
    88  H          0.21340000       0.64890000       0.97440000
    89  C          0.43146840       0.10739120       0.14157100
    90  C          0.56853160       0.89260880       0.85842900
    91  H          0.38240000       0.15320000       0.10980000
    92  H          0.61760000       0.84680000       0.89020000
    93  C          0.43946830       0.95732120       0.23574100
    94  C          0.56053170       0.04267880       0.76425900
    95  H          0.39310000       0.90180000       0.26760000
    96  H          0.60690000       0.09820000       0.73240000
    97  C          0.04074170       0.23775130       0.10024100
    98  C          0.95925830       0.76224870       0.89975900
    99  H          0.13450000       0.24640000       0.09960000
   100  H          0.86550000       0.75360000       0.90040000
   101  C          0.96716810       0.31184130       0.05699100
   102  C          0.03283190       0.68815870       0.94300900
   103  H          0.01210000       0.37000000       0.02860000
   104  H          0.98790000       0.63000000       0.97140000
   105  C          0.36809840       0.02723130       0.18765100
   106  C          0.63190160       0.97276870       0.81234900
   107  H          0.27470000       0.01760000       0.18780000
   108  H          0.72530000       0.98240000       0.81220000
   109  N          0.08475130       0.93370900       0.04197700
   110  N          0.91524870       0.06629100       0.95802300
   111  C          0.13427150       0.01710110      -0.00516800
   112  C          0.86572850       0.98289890       0.00516800
   113  C          0.95206840       0.91606110       0.04806800
   114  C          0.04793160       0.08393890       0.95193200
   115  C          0.27333160       0.04060120       0.98754100
   116  C          0.72666840       0.95939880       0.01245900
   117  H          0.33130000      -0.00300000       0.01530000
   118  H          0.66870000       0.00300000       0.98470000
   119  C          0.10640170       0.17029110       0.90250100
   120  C          0.89359830       0.82970890       0.09749900
   121  H          0.05180000       0.21420000       0.87270000
   122  H          0.94820000       0.78580000       0.12730000
   123  C          0.32363170       0.12514130       0.94109900
   124  C          0.67636830       0.87485870       0.05890100
   125  H          0.41610000       0.14090000       0.93760000
   126  H          0.58390000       0.85910000       0.06240000
   127  C          0.23947180       0.19040120       0.89759900
   128  C          0.76052820       0.80959880       0.10240100
   129  H          0.27680000       0.24860000       0.86480000
   130  H          0.72320000       0.75140000       0.13520000
   131  N          0.54828130       0.50516900       0.38706700
   132  N          0.45171870       0.49483100       0.61293300
   133  N          0.72307130       0.37192100       0.46759800
   134  N          0.27692870       0.62807900       0.53240200
   135  C          0.50464150       0.41791110       0.42954800
   136  C          0.49535850       0.58208890       0.57045200
   137  C          0.67865150       0.52667110       0.38428900
   138  C          0.32134850       0.47332890       0.61571100
   139  C          0.59325150       0.35008110       0.46956900
   140  C          0.40674850       0.64991890       0.53043100
   141  C          0.54195170       0.25686120       0.51170900
   142  C          0.45804830       0.74313880       0.48829100
   143  H          0.59960000       0.21090000       0.53800000
   144  H          0.40040000       0.78910000       0.46200000
   145  C          0.36727160       0.39064120       0.43466900
   146  C          0.63272840       0.60935880       0.56533100
   147  H          0.30680000       0.43520000       0.40940000
   148  H          0.69320000       0.56480000       0.59060000
   149  C          0.76627150       0.46002120       0.42535900
   150  C          0.23372850       0.53997880       0.57464100
   151  C          0.32281170       0.30115130       0.47554100
   152  C          0.67718830       0.69884870       0.52445900
   153  H          0.23140000       0.28340000       0.47830000
   154  H          0.76860000       0.71660000       0.52170000
   155  C          0.90340170       0.48781140       0.42065110
   156  C          0.09659830       0.51218860       0.57934890
   157  H          0.96260000       0.44500000       0.44810000
   158  H          0.03740000       0.55500000       0.55190000
   159  C          0.73211190       0.61743130       0.33847100
   160  C          0.26788810       0.38256870       0.66152900
   161  H          0.67570000       0.66190000       0.31020000
   162  H          0.32430000       0.33810000       0.68980000
   163  C          0.41128180       0.23370130       0.51425100
   164  C          0.58871820       0.76629870       0.48574900
   165  H          0.37820000       0.17130000       0.54240000
   166  H          0.62180000       0.82870000       0.45760000
   167  C          0.86372000       0.64012140       0.33535110
   168  C          0.13628000       0.35987860       0.66464890
   169  H          0.89860000       0.70050000       0.30470000
   170  H          0.10140000       0.29950000       0.69530000
   171  C          0.94923190       0.57521150       0.37702120
   172  C          0.05076810       0.42478850       0.62297880
   173  H          0.04050000       0.59310000       0.37440000
   174  H          0.95950000       0.40690000       0.62560000
   175  N          0.87871130       0.32241900       0.27488700
   176  N          0.12128870       0.67758100       0.72511300
   177  N          0.76021150       0.48138100       0.18205800
   178  N          0.23978850       0.51861900       0.81794200
   179  C          0.95130160       0.40228110       0.23677900
   180  C          0.04869840       0.59771890       0.76322100
   181  C          0.68718160       0.40339110       0.22180900
   182  C          0.31281840       0.59660890       0.77819100
   183  C          0.66693160       0.23822120       0.30615900
   184  C          0.33306840       0.76177880       0.69384100
   185  H          0.70610000       0.18350000       0.33620000
   186  H          0.29390000       0.81650000       0.66380000
   187  C          0.74720150       0.32141110       0.26816800
   188  C          0.25279850       0.67858890       0.73183200
   189  C          0.54755180       0.39920130       0.21709100
   190  C          0.45244820       0.60079870       0.78290900
   191  H          0.50560000       0.45300000       0.18760000
   192  H          0.49440000       0.54700000       0.81240000
   193  C          0.47397170       0.31903130       0.25438110
   194  C          0.52602830       0.68096870       0.74561890
   195  H          0.38080000       0.31720000       0.25050000
   196  H          0.61920000       0.68280000       0.74950000
   197  C          0.89134170       0.48104120       0.18894900
   198  C          0.10865830       0.51895880       0.81105100
   199  C          0.97532000       0.56071120       0.14650100
   200  C          0.02468000       0.43928880       0.85349900
   201  H          0.93790000       0.61280000       0.11330000
   202  H          0.06210000       0.38720000       0.88670000
   203  C          0.53373170       0.23720130       0.29943100
   204  C          0.46626830       0.76279870       0.70056900
   205  H          0.48010000       0.18160000       0.32490000
   206  H          0.51990000       0.81840000       0.67510000
   207  C          0.16527180       0.48670140       0.20251110
   208  C          0.83472820       0.51329860       0.79748890
   209  H          0.25760000       0.49040000       0.20750000
   210  H          0.74240000       0.50960000       0.79250000
   211  C          0.08998170       0.40816130       0.24301100
   212  C          0.91001830       0.59183870       0.75698900
   213  H          0.13030000       0.35710000       0.27560000
   214  H          0.86970000       0.64290000       0.72440000
   215  C          0.10752000       0.56284130       0.15306110
   216  C          0.89248000       0.43715870       0.84693890
   217  H          0.16230000       0.61610000       0.12410000
   218  H          0.83770000       0.38390000       0.87590000
   219  O          0.50365180       0.66108130       0.00225800
   220  O          0.49634820       0.33891870      -0.00225800
   221  C          0.61460190       0.60750150       0.96577880
   222  C          0.38539810       0.39249850       0.03422120
   223  H          0.66370000       0.65100000       0.92080000
   224  H          0.33630000       0.34900000       0.07920000
   225  H          0.58260000       0.54900000       0.94880000
   226  H          0.41740000       0.45100000       0.05120000
   227  H          0.67600000       0.58460000       0.00200000
   228  H          0.32400000       0.41540000      -0.00200000
   229  H          0.46320000       0.70071800       0.97068700
   230  H          0.53680000       0.29928200       0.02931300
