data_YUGBOS
_symmetry_space_group_name_H-M    'P1'
_symmetry_Int_Tables_number       1
loop_
_symmetry_equiv_pos_site_id
_symmetry_equiv_pos_as_xyz
1 x,y,z
_cell_length_a                   9.0183
_cell_length_b                   14.8134
_cell_length_c                   19.1626
_cell_angle_alpha                103.2364
_cell_angle_beta                 99.5224
_cell_angle_gamma                106.1504
loop_
_atom_site_label
_atom_site_type_symbol
_atom_site_fract_x
_atom_site_fract_y
_atom_site_fract_z
     1  P          0.21057160       0.00709100       0.17019800
     2  P          0.78942840      -0.00709100       0.82980200
     3  P          0.11925150       0.26343900       0.43784800
     4  P          0.88074850       0.73656100       0.56215200
     5  C          0.21246000       0.08064000       0.55803000
     6  C          0.78754000       0.91936000       0.44197000
     7  C          0.24275000       0.01473000       0.43733000
     8  C          0.75725000       0.98527000       0.56267000
     9  C          0.16835000       0.16463000       0.46433000
    10  C          0.83165000       0.83537000       0.53567000
    11  C          0.33306000       0.82936000       0.28983000
    12  C          0.66694000       0.17064000       0.71017000
    13  C          0.17405000       0.15503000       0.53513000
    14  C          0.82595000       0.84497000       0.46487000
    15  H          0.15000000       0.20240000       0.56990000
    16  H          0.85000000       0.79760000       0.43010000
    17  C          0.25115000       0.95397000       0.24303000
    18  C          0.74885000       0.04603000       0.75697000
    19  C          0.38557000       0.73927000       0.27593000
    20  C          0.61443000       0.26073000       0.72407000
    21  H          0.29180000       0.67990000       0.26090000
    22  H          0.70820000       0.32010000       0.73910000
    23  H          0.45620000       0.74100000       0.32130000
    24  H          0.54380000       0.25900000       0.67870000
    25  H          0.44240000       0.73870000       0.23650000
    26  H          0.55760000       0.26130000       0.76350000
    27  C          0.24885000       0.01144000       0.50923000
    28  C          0.75115000      -0.01144000       0.49077000
    29  H          0.27830000       0.96110000       0.52480000
    30  H          0.72170000       0.03890000       0.47520000
    31  C          0.19935000       0.09014000       0.41373000
    32  C          0.80065000       0.90986000       0.58627000
    33  C          0.24005000      -0.00423000       0.31393000
    34  C          0.75995000       0.00423000       0.68607000
    35  C          0.29846000       0.87106000       0.23213000
    36  C          0.70154000       0.12894000       0.76787000
    37  H          0.30780000       0.84140000       0.18430000
    38  H          0.69220000       0.15860000       0.81570000
    39  C          0.32036000       0.87357000       0.36063000
    40  C          0.67964000       0.12643000       0.63937000
    41  H          0.34520000       0.84790000       0.40040000
    42  H          0.65480000       0.15210000       0.59960000
    43  C          0.27045000       0.95597000       0.37183000
    44  C          0.72955000       0.04403000       0.62817000
    45  C          0.91435000       0.24583000       0.44093000
    46  C          0.08565000       0.75417000       0.55907000
    47  C          0.80024000       0.19773000       0.37463000
    48  C          0.19976000       0.80227000       0.62537000
    49  H          0.83270000       0.17660000       0.33070000
    50  H          0.16730000       0.82340000       0.66930000
    51  C          0.70614000       0.26004000       0.50173000
    52  C          0.29386000       0.73996000       0.49827000
    53  H          0.67400000       0.28190000       0.54560000
    54  H          0.32600000       0.71810000       0.45440000
    55  C          0.63994000       0.18034000       0.37153000
    56  C          0.36006000       0.81966000       0.62847000
    57  H          0.56210000       0.14580000       0.32620000
    58  H          0.43790000       0.85420000       0.67380000
    59  C          0.86494000       0.27473000       0.50463000
    60  C          0.13506000       0.72527000       0.49537000
    61  H          0.94150000       0.30500000       0.55070000
    62  H          0.05850000       0.69500000       0.44930000
    63  C          0.01345000       0.01434000       0.17113000
    64  C         -0.01345000       0.98566000       0.82887000
    65  C          0.72133000       0.03725000       0.18473000
    66  C          0.27867000       0.96275000       0.81527000
    67  H          0.62290000       0.04560000       0.19020000
    68  H          0.37710000       0.95440000       0.80980000
    69  C          0.75124000       0.95075000       0.19013000
    70  C          0.24876000       0.04925000       0.80987000
    71  H          0.67120000       0.89920000       0.19750000
    72  H          0.32880000       0.10080000       0.80250000
    73  C          0.83583000       0.10915000       0.17143000
    74  C          0.16417000       0.89085000       0.82857000
    75  H          0.81660000       0.16780000       0.16770000
    76  H          0.18340000       0.83220000       0.83230000
    77  C         -0.01946000       0.09734000       0.16323000
    78  C          0.01946000       0.90266000       0.83677000
    79  H          0.05730000       0.14690000       0.15200000
    80  H          0.94270000       0.85310000       0.84800000
    81  C          0.89714000       0.94036000       0.18463000
    82  C          0.10286000       0.05964000       0.81537000
    83  H          0.91820000       0.88260000       0.19000000
    84  H          0.08180000       0.11740000       0.81000000
    85  N          0.19814000       0.07783000       0.34022000
    86  N          0.80186000       0.92217000       0.65978000
    87  H          0.17440000       0.11590000       0.31420000
    88  H          0.82560000       0.88410000       0.68580000
    89  N          0.15314000       0.25983000       0.35912000
    90  N          0.84686000       0.74017000       0.64088000
    91  C          0.21406000       0.07574000       0.63583000
    92  C          0.78594000       0.92426000       0.36417000
    93  H          0.12020000       0.02230000       0.63520000
    94  H          0.87980000       0.97770000       0.36480000
    95  H          0.21210000       0.13810000       0.66610000
    96  H          0.78790000       0.86190000       0.33390000
    97  H          0.31070000       0.06330000       0.65660000
    98  H          0.68930000       0.93670000       0.34340000
    99  C          0.59474000       0.21414000       0.43604000
   100  C          0.40526000       0.78586000       0.56396000
   101  H          0.48570000       0.20530000       0.43420000
   102  H          0.51430000       0.79470000       0.56580000
   103  C          0.05287000       0.83916000       0.04983000
   104  C          0.94713000       0.16084000       0.95017000
   105  H          0.96040000       0.83480000       0.06830000
   106  H          0.03960000       0.16520000       0.93170000
   107  C          0.32197000       0.92186000       0.05583000
   108  C          0.67803000       0.07814000       0.94417000
   109  H          0.41770000       0.97540000       0.07890000
   110  H          0.58230000       0.02460000       0.92110000
   111  C          0.19146000       0.91736000       0.08533000
   112  C          0.80854000       0.08264000       0.91467000
   113  C          0.39176000       0.38714000       0.54253000
   114  C          0.60824000       0.61286000       0.45747000
   115  H          0.43050000       0.33340000       0.53100000
   116  H          0.56950000       0.66660000       0.46900000
   117  C          0.23735000       0.37453000       0.51012000
   118  C          0.76265000       0.62547000       0.48988000
   119  C          0.18286000       0.45473000       0.52743000
   120  C          0.81714000       0.54527000       0.47257000
   121  H          0.07660000       0.44850000       0.50540000
   122  H          0.92340000       0.55150000       0.49460000
   123  C          0.13666000       0.32504000       0.31863000
   124  C          0.86334000       0.67496000       0.68137000
   125  C          0.04986000       0.39064000       0.33113000
   126  C          0.95014000       0.60936000       0.66887000
   127  H         -0.00130000       0.39340000       0.37070000
   128  H          0.00130000       0.60660000       0.62930000
   129  C          0.20007000       0.38584000       0.21633000
   130  C          0.79993000       0.61416000       0.78367000
   131  H          0.25150000       0.38450000       0.17680000
   132  H          0.74850000       0.61550000       0.82320000
   133  C          0.21096000       0.32524000       0.26013000
   134  C          0.78904000       0.67476000       0.73987000
   135  H          0.27070000       0.28220000       0.25040000
   136  H          0.72930000       0.71780000       0.74960000
   137  C          0.03817000       0.45074000       0.28663000
   138  C          0.96183000       0.54926000       0.71337000
   139  H         -0.02240000       0.49360000       0.29510000
   140  H          0.02240000       0.50640000       0.70490000
   141  C          0.28326000       0.54294000       0.57633000
   142  C          0.71674000       0.45706000       0.42367000
   143  H          0.24560000       0.59710000       0.58770000
   144  H          0.75440000       0.40290000       0.41230000
   145  C          0.30876000       0.16464000       0.07973000
   146  C          0.69124000       0.83536000       0.92027000
   147  H          0.21510000       0.11000000       0.05540000
   148  H          0.78490000       0.89000000       0.94460000
   149  C          0.39126000       0.17344000       0.14943000
   150  C          0.60874000       0.82656000       0.85057000
   151  C          0.43756000       0.55304000       0.60883000
   152  C          0.56244000       0.44696000       0.39117000
   153  H          0.50540000       0.61350000       0.64310000
   154  H          0.49460000       0.38650000       0.35690000
   155  C          0.49266000       0.47494000       0.59143000
   156  C          0.50734000       0.52506000       0.40857000
   157  H          0.59930000       0.48150000       0.61280000
   158  H          0.40070000       0.51850000       0.38720000
   159  C          0.17998000       0.77276000       0.96107000
   160  C          0.82002000       0.22724000       0.03893000
   161  H          0.17660000       0.72190000       0.91970000
   162  H          0.82340000       0.27810000       0.08030000
   163  C          0.52626000       0.25754000       0.18413000
   164  C          0.47374000       0.74246000       0.81587000
   165  H          0.58450000       0.26530000       0.23240000
   166  H          0.41550000       0.73470000       0.76760000
   167  C          0.49248000       0.31885000       0.08054000
   168  C          0.50752000       0.68115000       0.91946000
   169  H          0.52360000       0.36880000       0.05720000
   170  H          0.47640000       0.63120000       0.94280000
   171  C          0.57647000       0.32924000       0.14944000
   172  C          0.42353000       0.67076000       0.85056000
   173  H          0.66850000       0.38490000       0.17360000
   174  H          0.33150000       0.61510000       0.82640000
   175  N          0.34884000       0.10753000       0.19032000
   176  N          0.65116000       0.89247000       0.80968000
   177  C          0.36267000       0.23645000       0.04453000
   178  C          0.63733000       0.76355000       0.95547000
   179  H          0.30870000       0.22790000      -0.00470000
   180  H          0.69130000       0.77210000       0.00470000
   181  C          0.31798000       0.85075000      -0.00663000
   182  C          0.68202000       0.14925000       0.00663000
   183  H          0.40860000       0.85600000       0.97350000
   184  H          0.59140000       0.14400000       0.02650000
   185  C          0.04697000       0.76746000       0.98787000
   186  C          0.95303000       0.23254000       0.01213000
   187  H          0.95070000       0.71460000       0.96390000
   188  H          0.04930000       0.28540000       0.03610000
   189  C          0.11398000       0.44845000       0.23013000
   190  C          0.88602000       0.55155000       0.76987000
   191  H          0.10680000       0.49070000       0.20020000
   192  H          0.89320000       0.50930000       0.79980000
   193  C          0.74341700       0.65408000       0.14746000
   194  C          0.25658300       0.34592000       0.85254000
   195  H          0.73720000       0.66730000       0.10100000
   196  H          0.26280000       0.33270000       0.89900000
   197  C          0.89351000       0.67495000       0.26616000
   198  C          0.10649000       0.32505000       0.73384000
   199  H         -0.00790000       0.70240000       0.30230000
   200  H          0.00790000       0.29760000       0.69770000
   201  C          0.62001000       0.58255000       0.23066000
   202  C          0.37999000       0.41745000       0.76934000
   203  H          0.52800000       0.54420000       0.24140000
   204  H          0.47200000       0.45580000       0.75860000
   205  C          0.88531300       0.68936000       0.19967000
   206  C          0.11468700       0.31064000       0.80033000
   207  H         -0.02090000       0.72460000       0.18820000
   208  H          0.02090000       0.27540000       0.81180000
   209  C          0.60941300       0.59867000       0.16336000
   210  C          0.39058700       0.40133000       0.83664000
   211  H          0.51050000       0.57200000       0.12730000
   212  H          0.48950000       0.42800000       0.87270000
   213  C          0.76031200       0.62056000       0.28284000
   214  C          0.23968800       0.37944000       0.71716000
   215  H          0.76660000       0.60970000       0.33000000
   216  H          0.23340000       0.39030000       0.67000000
