data_YUGTAY
_symmetry_space_group_name_H-M    'P1'
_symmetry_Int_Tables_number       1
loop_
_symmetry_equiv_pos_site_id
_symmetry_equiv_pos_as_xyz
1 x,y,z
_cell_length_a                   7.5893
_cell_length_b                   14.3684
_cell_length_c                   18.5615
_cell_angle_alpha                72.2611
_cell_angle_beta                 85.403
_cell_angle_gamma                88.993
loop_
_atom_site_label
_atom_site_type_symbol
_atom_site_fract_x
_atom_site_fract_y
_atom_site_fract_z
     1  C          0.62923000       0.27010150       0.64570880
     2  C          0.37077000       0.72989850       0.35429120
     3  C          0.58613000       0.28297150       0.57228880
     4  C          0.41387000       0.71702850       0.42771120
     5  C          0.58783000       0.20199160       0.54377880
     6  C          0.41217000       0.79800840       0.45622120
     7  H          0.55956200       0.21120800       0.49425300
     8  H          0.44043800       0.78879200       0.50574700
     9  C          0.63003000       0.11102150       0.58749890
    10  C          0.36997000       0.88897850       0.41250110
    11  H          0.63060500       0.05896600       0.56755000
    12  H          0.36939500       0.94103400       0.43245000
    13  C          0.67293000       0.09500140       0.66297900
    14  C          0.32707000       0.90499860       0.33702100
    15  C          0.66953000       0.17576150       0.69185890
    16  C          0.33047000       0.82423850       0.30814110
    17  C          0.70733000       0.15751140       0.76765890
    18  C          0.29267000       0.84248860       0.23234110
    19  H          0.70445300       0.20904100       0.78824500
    20  H          0.29554700       0.79095900       0.21175500
    21  C          0.75613000       0.98804140       0.78419900
    22  C          0.24387000       0.01195860       0.21580100
    23  C          0.71603000       0.00265140       0.71066890
    24  C          0.28397000      -0.00265140       0.28933110
    25  H          0.71752300       0.94952400       0.69191800
    26  H          0.28247700       0.05047600       0.30808200
    27  C          0.80673000       0.89341140       0.83521900
    28  C          0.19327000       0.10658860       0.16478100
    29  C          0.87603000       0.88787150       0.90409900
    30  C          0.12397000       0.11212850       0.09590100
    31  C          0.90073000       0.97993160       0.92381890
    32  C          0.09927000       0.02006840       0.07618110
    33  H          0.01678600       0.00720600       0.90340400
    34  H          0.98321400       0.99279400       0.09659600
    35  H          0.89540400       0.96495400       0.97856700
    36  H          0.10459600       0.03504600       0.02143300
    37  C          0.76283000       0.05411160       0.89314890
    38  C          0.23717000       0.94588840       0.10685110
    39  H          0.64975600       0.03264200       0.92109100
    40  H          0.35024400       0.96735800       0.07890900
    41  H          0.79347400       0.11578600       0.90031900
    42  H          0.20652600       0.88421400       0.09968100
    43  C          0.92893000       0.79815160       0.95280890
    44  C          0.07107000       0.20184840       0.04719110
    45  H          0.97460600       0.79406200      -0.00130700
    46  H          0.02539400       0.20593800       0.00130700
    47  C          0.91083000       0.71752160       0.93029890
    48  C          0.08917000       0.28247840       0.06970110
    49  C          0.84403000       0.72250150       0.86209890
    50  C          0.15597000       0.27749850       0.13790110
    51  C          0.78973000       0.80795150       0.81329890
    52  C          0.21027000       0.19204850       0.18670110
    53  H          0.74379700       0.80999700       0.76787100
    54  H          0.25620300       0.19000300       0.23212900
    55  C          0.90784000       0.56615160       0.91998870
    56  C          0.09216000       0.43384840       0.08001130
    57  H          0.01273600       0.53400100       0.90605000
    58  H         -0.01273600       0.46599900       0.09395000
    59  H          0.82043100       0.51647700       0.94639400
    60  H          0.17956900       0.48352300       0.05360600
    61  C          0.47714000       0.37197190       0.70764840
    62  C          0.52286000       0.62802810       0.29235160
    63  H          0.38841000       0.38538400       0.67181600
    64  H          0.61159000       0.61461600       0.32818400
    65  H          0.49436200       0.42857800       0.72353800
    66  H          0.50563800       0.57142200       0.27646200
    67  H          0.43943200       0.31789900       0.75095100
    68  H          0.56056800       0.68210100       0.24904900
    69  C          0.50395000       0.39215190       0.45501860
    70  C          0.49605000       0.60784810       0.54498140
    71  H          0.60765700       0.38293700       0.42485000
    72  H          0.39234300       0.61706300       0.57515000
    73  H          0.46262100       0.45786900       0.43518300
    74  H          0.53737900       0.54213100       0.56481700
    75  H          0.41329000       0.34713500       0.45354600
    76  H          0.58671000       0.65286500       0.54645400
    77  N          0.74702000       0.06875120       0.81082200
    78  N          0.25298000       0.93124880       0.18917800
    79  O          0.63922000       0.34828110       0.67295100
    80  O          0.36078000       0.65171890       0.32704900
    81  O          0.54573000       0.37514120       0.53128100
    82  O          0.45427000       0.62485880       0.46871900
    83  O          0.83973000       0.63068110       0.85397100
    84  O          0.16027000       0.36931890       0.14602900
    85  O          0.95053000       0.62248120       0.96797100
    86  O          0.04947000       0.37751880       0.03202900
    87  C          0.80223000       0.98685850       0.43628110
    88  C          0.19777000       0.01314150       0.56371890
    89  H          0.85455300       0.98067300       0.48349400
    90  H          0.14544700       0.01932700       0.51650600
    91  H          0.67502200       0.99085900       0.44528200
    92  H          0.32497800       0.00914100       0.55471800
    93  C          0.66793000       0.28011140       0.13628110
    94  C          0.33207000       0.71988860       0.86371890
    95  C          0.60453000       0.28852150       0.06654110
    96  C          0.39547000       0.71147850       0.93345890
    97  C          0.58663000       0.20432160       0.04348110
    98  C          0.41337000       0.79567840       0.95651890
    99  H          0.54697600       0.21084500      -0.00393000
   100  H          0.45302400       0.78915500       0.00393000
   101  C          0.62623000       0.11371140       0.08917110
   102  C          0.37377000       0.88628860       0.91082890
   103  H          0.61483200       0.05946900       0.07245900
   104  H          0.38516800       0.94053100       0.92754100
   105  C          0.68463000       0.10189140       0.16194100
   106  C          0.31537000       0.89810860       0.83805900
   107  C          0.70603000       0.18656140       0.18472110
   108  C          0.29397000       0.81343860       0.81527890
   109  C          0.76633000       0.17304140       0.25675110
   110  C          0.23367000       0.82695860       0.74324890
   111  H          0.78140900       0.22729200       0.27307000
   112  H          0.21859100       0.77270800       0.72693000
   113  C          0.78313000       0.00048140       0.28180100
   114  C          0.21687000      -0.00048140       0.71819900
   115  C          0.72183000       0.01001140       0.21233110
   116  C          0.27817000       0.98998860       0.78766890
   117  H          0.70453800       0.95422300       0.19824100
   118  H          0.29546200       0.04577700       0.80175900
   119  C          0.83113000       0.90699860       0.33464100
   120  C          0.16887000       0.09300140       0.66535900
   121  C          0.84673000       0.89828850       0.41125110
   122  C          0.15327000       0.10171150       0.58874890
   123  C          0.87023000       0.07878150       0.37681110
   124  C          0.12977000       0.92121850       0.62318890
   125  H          0.83186400       0.13533200       0.39192000
   126  H          0.16813600       0.86466800       0.60808000
   127  H         -0.00161700       0.07854600       0.37220700
   128  H          0.00161700       0.92145400       0.62779300
   129  C          0.89263000       0.80927830       0.46277110
   130  C          0.10737000       0.19072170       0.53722890
   131  H          0.90342200       0.80305500       0.51357700
   132  H          0.09657800       0.19694500       0.48642300
   133  C          0.92073000       0.73190850       0.43489120
   134  C          0.07927000       0.26809150       0.56510880
   135  C          0.90293000       0.74024850       0.35959120
   136  C          0.09707000       0.25975150       0.64040880
   137  C          0.85973000       0.82580850       0.30759110
   138  C          0.14027000       0.17419150       0.69240890
   139  H          0.84963500       0.83034100       0.25702600
   140  H          0.15036500       0.16965900       0.74297400
   141  C          0.97314000       0.58557830       0.41869140
   142  C          0.02686000       0.41442170       0.58130860
   143  H          0.08837000       0.55623500       0.41543600
   144  H          0.91163000       0.44376500       0.58456400
   145  H          0.88469800       0.53387300       0.43405200
   146  H          0.11530200       0.46612700       0.56594800
   147  C          0.56244000       0.38668170       0.20483130
   148  C          0.43756000       0.61331830       0.79516870
   149  H          0.45376500       0.39515100       0.18044400
   150  H          0.54623500       0.60484900       0.81955600
   151  H          0.59285500       0.44639600       0.21403900
   152  H          0.40714500       0.55360400       0.78596100
   153  H          0.54803000       0.33527300       0.25217600
   154  H          0.45197000       0.66472700       0.74782400
   155  C          0.49294000       0.39099190       0.95265870
   156  C          0.50706000       0.60900810       0.04734130
   157  H          0.58373800       0.37786800       0.91805100
   158  H          0.41626200       0.62213200       0.08194900
   159  H          0.45159600       0.45662800       0.93238000
   160  H          0.54840400       0.54337200       0.06762000
   161  H          0.39639500       0.34599200       0.95960500
   162  H          0.60360500       0.65400800       0.04039500
   163  N          0.80232000       0.08521110       0.30208800
   164  N          0.19768000       0.91478890       0.69791200
   165  O          0.70042000       0.36161100       0.15678900
   166  O          0.29958000       0.63838900       0.84321100
   167  O          0.56293000       0.37978110       0.02410900
   168  O          0.43707000       0.62021890       0.97589100
   169  O          0.93873000       0.65218890       0.34697900
   170  O          0.06127000       0.34781110       0.65302100
   171  O          0.96793000       0.63820870       0.47269900
   172  O          0.03207000       0.36179130       0.52730100
   173  C          0.02084000       0.64011170       0.17723130
   174  C          0.97916000       0.35988830       0.82276870
   175  C          0.08774000       0.54533180       0.22552140
   176  C          0.91226000       0.45466820       0.77447860
   177  H          0.20953300       0.53705500       0.22554200
   178  H          0.79046700       0.46294500       0.77445800
   179  C         -0.01186000       0.47328190       0.26768150
   180  C          0.01186000       0.52671810       0.73231850
   181  H          0.86649600       0.48264400       0.26890000
   182  H          0.13350400       0.51735600       0.73110000
   183  C          0.05314000       0.37737170       0.31396130
   184  C          0.94686000       0.62262830       0.68603870
   185  O          0.84773000       0.64256140       0.17429120
   186  O          0.15227000       0.35743860       0.82570880
   187  H          0.81787200       0.69787000       0.15066800
   188  H          0.18212800       0.30213000       0.84933200
   189  O          0.11913000       0.70687150       0.14503130
   190  O          0.88087000       0.29312850       0.85496870
   191  O          0.22483000       0.37302130       0.31896110
   192  O          0.77517000       0.62697870       0.68103890
   193  H          0.25300900       0.31646300       0.33997300
   194  H          0.74699100       0.68353700       0.66002700
   195  O          0.95404000       0.30924150       0.34247140
   196  O          0.04596000       0.69075850       0.65752860
   197  Cl         0.67344900       0.83731400       0.11264300
   198  Cl         0.32655100       0.16268600       0.88735700
   199  Cl         0.39207900       0.17440400       0.37634300
   200  Cl         0.60792100       0.82559600       0.62365700
