data_YUHLET
_symmetry_space_group_name_H-M    'P1'
_symmetry_Int_Tables_number       1
loop_
_symmetry_equiv_pos_site_id
_symmetry_equiv_pos_as_xyz
1 x,y,z
_cell_length_a                   7.23386
_cell_length_b                   9.03127
_cell_length_c                   13.33521
_cell_angle_alpha                109.1591
_cell_angle_beta                 102.9622
_cell_angle_gamma                93.2381
loop_
_atom_site_label
_atom_site_type_symbol
_atom_site_fract_x
_atom_site_fract_y
_atom_site_fract_z
     1  I          0.69251200       0.68862118       0.81564613
     2  I          0.30748800       0.31137882       0.18435387
     3  F          0.49273000       0.76002000       0.71803150
     4  F          0.50727000       0.23998000       0.28196850
     5  F          0.86093000       0.54302000       0.86465150
     6  F          0.13907000       0.45698000       0.13534850
     7  F          0.31473000       0.43343000       0.70383180
     8  F          0.68527000       0.56657000       0.29616820
     9  F          0.22524000       0.16013000       0.53063190
    10  F          0.77476000       0.83987000       0.46936810
    11  F          0.48255000       0.06172000       0.41333170
    12  F          0.51745000       0.93828000       0.58666830
    13  F          0.82774000       0.24273000       0.46436190
    14  F          0.17226000       0.75727000       0.53563810
    15  F          0.91573000       0.51983000       0.63443180
    16  F          0.08427000       0.48017000       0.36556820
    17  C          0.61685000       0.48303000       0.67282000
    18  C          0.38315000       0.51697000       0.32718000
    19  C          0.44205000       0.39124000       0.64453000
    20  C          0.55795000       0.60876000       0.35547000
    21  C          0.39507000       0.25054000       0.55633000
    22  C          0.60493000       0.74946000       0.44367000
    23  C          0.52427000       0.20124000       0.49593000
    24  C          0.47573000       0.79876000       0.50407000
    25  C          0.69867000       0.29084000       0.52203000
    26  C          0.30133000       0.70916000       0.47797000
    27  C          0.74475000       0.43324000       0.61053000
    28  C          0.25525000       0.56676000       0.38947000
    29  N          0.32153000      -0.00757000       0.07582000
    30  N          0.67847000       0.00757000       0.92418000
    31  N          0.14153000       0.16253000       0.95908190
    32  N          0.85847000       0.83747000       0.04091810
    33  C          0.39424000       0.90783000       0.13673000
    34  C          0.60576000       0.09217000       0.86327000
    35  H          0.44340000       0.96040000       0.21370000
    36  H          0.55660000       0.03960000       0.78630000
    37  C          0.40145000       0.74643000       0.09293000
    38  C          0.59855000       0.25357000       0.90707000
    39  H          0.45490000       0.69030000       0.13890000
    40  H          0.54510000       0.30970000       0.86110000
    41  C          0.32905000       0.66913000       0.98123000
    42  C          0.67095000       0.33087000       0.01877000
    43  H          0.33180000       0.55880000       0.94880000
    44  H          0.66820000       0.44120000       0.05120000
    45  C          0.25264000       0.75553000       0.91743000
    46  C          0.74736000       0.24447000       0.08257000
    47  H          0.20200000       0.70510000       0.84030000
    48  H          0.79800000       0.29490000       0.15970000
    49  C          0.25044000       0.91763000       0.96702000
    50  C          0.74956000       0.08237000       0.03298000
    51  C          0.17104000       0.01593000       0.90182000
    52  C          0.82896000      -0.01593000       0.09818000
    53  C          0.13265000       0.96054000       0.78772000
    54  C          0.86735000       0.03946000       0.21228000
    55  H          0.15540000       0.85720000       0.74920000
    56  H          0.84460000       0.14280000       0.25080000
    57  C          0.06105000       0.05724000       0.73073000
    58  C          0.93895000       0.94276000       0.26927000
    59  H          0.03470000       0.02150000       0.65290000
    60  H          0.96530000       0.97850000       0.34710000
    61  C          0.02845000       0.20704000       0.78943000
    62  C          0.97155000       0.79296000       0.21057000
    63  H         -0.02180000       0.27580000       0.75270000
    64  H          0.02180000       0.72420000       0.24730000
    65  C          0.07084000       0.25403000       0.90302000
    66  C          0.92916000       0.74597000       0.09698000
    67  H          0.04830000       0.35670000       0.94300000
    68  H          0.95170000       0.64330000       0.05700000
