data_YUHLOD
_symmetry_space_group_name_H-M    'P1'
_symmetry_Int_Tables_number       1
loop_
_symmetry_equiv_pos_site_id
_symmetry_equiv_pos_as_xyz
1 x,y,z
_cell_length_a                   7.507613
_cell_length_b                   10.258518
_cell_length_c                   11.8362
_cell_angle_alpha                84.4686
_cell_angle_beta                 82.3786
_cell_angle_gamma                80.9086
loop_
_atom_site_label
_atom_site_type_symbol
_atom_site_fract_x
_atom_site_fract_y
_atom_site_fract_z
     1  I          0.26443613       0.65550390       0.18847780
     2  I          0.73556387       0.34449610       0.81152220
     3  F          0.14897190       0.02984130       0.75534890
     4  F          0.85102810       0.97015870       0.24465110
     5  N          0.29952000       0.95546160       0.27529150
     6  N          0.70048000       0.04453840       0.72470850
     7  N          0.25713000       0.39916180       0.02718170
     8  N          0.74287000       0.60083820       0.97281830
     9  C          0.23092000       0.77346160       0.03430140
    10  C          0.76908000       0.22653840       0.96569860
    11  C          0.37292000       0.83706180       0.98142850
    12  C          0.62708000       0.16293820       0.01857150
    13  H          0.48880000       0.82070000       0.01010000
    14  H          0.51120000       0.17930000      -0.01010000
    15  C          0.34423000       0.92474190       0.88617840
    16  C          0.65577000       0.07525810       0.11382160
    17  H          0.43920000       0.97120000       0.84780000
    18  H          0.56080000       0.02880000       0.15220000
    19  C          0.17553000       0.94334180       0.84796850
    20  C          0.82447000       0.05665820       0.15203150
    21  C          0.03423000       0.87953180       0.89865850
    22  C          0.96577000       0.12046820       0.10134150
    23  H          0.91950000       0.89470000       0.86860000
    24  H          0.08050000       0.10530000       0.13140000
    25  C          0.06232000       0.79272170      -0.00537150
    26  C          0.93768000       0.20727830       0.00537150
    27  H          0.96670000       0.74700000       0.03310000
    28  H          0.03330000       0.25300000       0.96690000
    29  C          0.27922000       0.85553170       0.24922150
    30  C          0.72078000       0.14446830       0.75077850
    31  C          0.25703000       0.48525180       0.08125170
    32  C          0.74297000       0.51474820       0.91874830
    33  N          0.15749190       0.65799140       0.44371120
    34  N          0.84250810       0.34200860       0.55628880
    35  N          0.35457190       0.43118140       0.35764120
    36  N          0.64542810       0.56881860       0.64235880
    37  C          0.05612000       0.76416180       0.48661160
    38  C          0.94388000       0.23583820       0.51338840
    39  H          0.02300000       0.83890000       0.43430000
    40  H          0.97700000       0.16110000       0.56570000
    41  C         -0.00342000       0.77456190       0.60310170
    42  C          0.00342000       0.22543810       0.39689830
    43  H          0.92190000       0.85340000       0.62890000
    44  H          0.07810000       0.14660000       0.37110000
    45  C          0.04633000       0.66958190       0.67808160
    46  C          0.95367000       0.33041810       0.32191840
    47  H          0.00860000       0.67420000       0.75850000
    48  H         -0.00860000       0.32580000       0.24150000
    49  C          0.15332000       0.55389180       0.63690140
    50  C          0.84668000       0.44610820       0.36309860
    51  C          0.20842000       0.44041190       0.71197150
    52  C          0.79158000       0.55958810       0.28802850
    53  H          0.17580000       0.44330000       0.79300000
    54  H          0.82420000       0.55670000       0.20700000
    55  C          0.30582000       0.33014190       0.66991150
    56  C          0.69418000       0.66985810       0.33008850
    57  H          0.34130000       0.25520000       0.72140000
    58  H          0.65870000       0.74480000       0.27860000
    59  C          0.35792000       0.32279170       0.54944150
    60  C          0.64208000       0.67720830       0.45055850
    61  C          0.45862000       0.20828180       0.50383170
    62  C          0.54138000       0.79171820       0.49616830
    63  H          0.49400000       0.13240000       0.55290000
    64  H          0.50600000       0.86760000       0.44710000
    65  C          0.50493000       0.20722180       0.38835170
    66  C          0.49507000       0.79277820       0.61164830
    67  H          0.57290000       0.12970000       0.35570000
    68  H          0.42710000       0.87030000       0.64430000
    69  C          0.45032000       0.32120180       0.31871160
    70  C          0.54968000       0.67879820       0.68128840
    71  H          0.48370000       0.31950000       0.23770000
    72  H          0.51630000       0.68050000       0.76230000
    73  C          0.30892000       0.43339160       0.47244140
    74  C          0.69108000       0.56660840       0.52755860
    75  C          0.20392000       0.55257160       0.51757140
    76  C          0.79608000       0.44742840       0.48242860
