data_YULNEZ
_symmetry_space_group_name_H-M    'P1'
_symmetry_Int_Tables_number       1
loop_
_symmetry_equiv_pos_site_id
_symmetry_equiv_pos_as_xyz
1 x,y,z
_cell_length_a                   9.2683
_cell_length_b                   13.9345
_cell_length_c                   19.0736
_cell_angle_alpha                90.0
_cell_angle_beta                 90.0
_cell_angle_gamma                90.0
loop_
_atom_site_label
_atom_site_type_symbol
_atom_site_fract_x
_atom_site_fract_y
_atom_site_fract_z
     1  N          0.19978000       0.24135000       0.68874000
     2  N          0.30022000       0.75865000       0.18874000
     3  N          0.69978000       0.25865000       0.31126000
     4  N          0.80022000       0.74135000       0.81126000
     5  N          0.36758000       0.36845000       0.89204000
     6  N          0.13242000       0.63155000       0.39204000
     7  N          0.86758000       0.13155000       0.10796000
     8  N          0.63242000       0.86845000       0.60796000
     9  O          0.42996000       0.30084000       0.67243000
    10  O          0.07004000       0.69916000       0.17243000
    11  O          0.92996000       0.19916000       0.32757000
    12  O          0.57004000       0.80084000       0.82757000
    13  O          0.29117000       0.40264000       0.55883000
    14  O          0.20883000       0.59736000       0.05883000
    15  O          0.79117000       0.09736000       0.44117000
    16  O          0.70883000       0.90264000       0.94117000
    17  O          0.05568000       0.35115000       0.54683000
    18  O          0.44432000       0.64885000       0.04683000
    19  O          0.55568000       0.14885000       0.45317000
    20  O          0.94432000       0.85115000       0.95317000
    21  H          0.02090000       0.40440000       0.54010000
    22  H          0.47910000       0.59560000       0.04010000
    23  H          0.52090000       0.09560000       0.45990000
    24  H          0.97910000       0.90440000       0.95990000
    25  O          0.55639000       0.42475000       0.47344000
    26  O          0.94361000       0.57525000       0.97344000
    27  O          0.05639000       0.07525000       0.52656000
    28  O          0.44361000       0.92475000       0.02656000
    29  H          0.59420000       0.47750000       0.47830000
    30  H          0.90580000       0.52250000       0.97830000
    31  H          0.09420000       0.02250000       0.52170000
    32  H          0.40580000       0.97750000       0.02170000
    33  C          0.30579000       0.30616000       0.72085000
    34  C          0.19421000       0.69384000       0.22085000
    35  C          0.80579000       0.19384000       0.27915000
    36  C          0.69421000       0.80616000       0.77915000
    37  C          0.26409000       0.30197000       0.85234000
    38  C          0.23591000       0.69803000       0.35234000
    39  C          0.76409000       0.19803000       0.14766000
    40  C          0.73591000       0.80197000       0.64766000
    41  H          0.23760000       0.24900000       0.88360000
    42  H          0.26240000       0.75100000       0.38360000
    43  H          0.73760000       0.25100000       0.11640000
    44  H          0.76240000       0.74900000       0.61640000
    45  C          0.50599000       0.31237000       0.88825000
    46  C         -0.00599000       0.68763000       0.38825000
    47  C          0.00599000       0.18763000       0.11175000
    48  C          0.49401000       0.81237000       0.61175000
    49  H          0.50520000       0.25930000       0.92110000
    50  H         -0.00520000       0.74070000       0.42110000
    51  H          0.00520000       0.24070000       0.07890000
    52  H          0.49480000       0.75930000       0.57890000
    53  H          0.58840000       0.35300000       0.89800000
    54  H          0.91160000       0.64700000       0.39800000
    55  H          0.08840000       0.14700000       0.10200000
    56  H          0.41160000       0.85300000       0.60200000
    57  C          0.50981000       0.27586000       0.81255000
    58  C         -0.00981000       0.72414000       0.31255000
    59  C          0.00981000       0.22414000       0.18745000
    60  C          0.49019000       0.77586000       0.68745000
    61  H          0.56330000       0.21610000       0.80950000
    62  H          0.93670000       0.78390000       0.30950000
    63  H          0.06330000       0.28390000       0.19050000
    64  H          0.43670000       0.71610000       0.69050000
    65  H          0.55530000       0.32270000       0.78200000
    66  H          0.94470000       0.67730000       0.28200000
    67  H          0.05530000       0.17730000       0.21800000
    68  H          0.44470000       0.82270000       0.71800000
    69  C          0.34861000       0.26006000       0.79075000
    70  C          0.15139000       0.73994000       0.29075000
    71  C          0.84861000       0.23994000       0.20925000
    72  C          0.65139000       0.76006000       0.70925000
    73  C          0.31079000       0.15686000       0.77675000
    74  C          0.18921000       0.84314000       0.27675000
    75  C          0.81079000       0.34314000       0.22325000
    76  C          0.68921000       0.65686000       0.72325000
    77  C          0.34621000       0.07447000       0.81475000
    78  C          0.15379000       0.92553000       0.31475000
    79  C          0.84621000       0.42553000       0.18525000
    80  C          0.65379000       0.57447000       0.68525000
    81  H          0.39720000       0.07910000       0.85660000
    82  H          0.10280000       0.92090000       0.35660000
    83  H          0.89720000       0.42090000       0.14340000
    84  H          0.60280000       0.57910000       0.64340000
    85  C          0.30401000       0.98453000       0.78915000
    86  C          0.19599000       0.01547000       0.28915000
    87  C          0.80401000       0.51547000       0.21085000
    88  C          0.69599000       0.48453000       0.71085000
    89  H          0.32830000       0.92900000       0.81340000
    90  H          0.17170000       0.07100000       0.31340000
    91  H          0.82830000       0.57100000       0.18660000
    92  H          0.67170000       0.42900000       0.68660000
    93  C          0.22561000       0.97883000       0.72725000
    94  C          0.27439000       0.02117000       0.22725000
    95  C          0.72561000       0.52117000       0.27275000
    96  C          0.77439000       0.47883000       0.77275000
    97  H          0.19710000       0.91910000       0.71050000
    98  H          0.30290000       0.08090000       0.21050000
    99  H          0.69710000       0.58090000       0.28950000
   100  H          0.80290000       0.41910000       0.78950000
   101  C          0.18939000       0.05967000       0.69035000
   102  C          0.31061000       0.94033000       0.19035000
   103  C          0.68939000       0.44033000       0.30965000
   104  C          0.81061000       0.55967000       0.80965000
   105  H          0.13700000       0.05480000       0.64880000
   106  H          0.36300000       0.94520000       0.14880000
   107  H          0.63700000       0.44520000       0.35120000
   108  H          0.86300000       0.55480000       0.85120000
   109  C          0.23149000       0.14827000       0.71545000
   110  C          0.26851000       0.85173000       0.21545000
   111  C          0.73149000       0.35173000       0.28455000
   112  C          0.76851000       0.64827000       0.78455000
   113  C          0.12721000       0.35286000       0.83084000
   114  C          0.37279000       0.64714000       0.33084000
   115  C          0.62721000       0.14714000       0.16916000
   116  C          0.87279000       0.85286000       0.66916000
   117  H          0.07330000       0.37200000       0.87200000
   118  H          0.42670000       0.62800000       0.37200000
   119  H          0.57330000       0.12800000       0.12800000
   120  H          0.92670000       0.87200000       0.62800000
   121  H          0.06720000       0.31020000       0.80310000
   122  H          0.43280000       0.68980000       0.30310000
   123  H          0.56720000       0.18980000       0.19690000
   124  H          0.93280000       0.81020000       0.69690000
   125  C          0.16859000       0.44217000       0.78725000
   126  C          0.33141000       0.55783000       0.28725000
   127  C          0.66859000       0.05783000       0.21275000
   128  C          0.83141000       0.94217000       0.71275000
   129  H          0.07860000       0.47410000       0.77360000
   130  H          0.42140000       0.52590000       0.27360000
   131  H          0.57860000       0.02590000       0.22640000
   132  H          0.92140000       0.97410000       0.72640000
   133  C          0.24619000       0.40986000       0.71795000
   134  C          0.25381000       0.59014000       0.21795000
   135  C          0.74619000       0.09014000       0.28205000
   136  C          0.75381000       0.90986000       0.78205000
   137  H          0.32610000       0.45390000       0.70850000
   138  H          0.17390000       0.54610000       0.20850000
   139  H          0.82610000       0.04610000       0.29150000
   140  H          0.67390000       0.95390000       0.79150000
   141  C          0.13371000       0.41826000       0.65735000
   142  C          0.36629000       0.58174000       0.15735000
   143  C          0.63371000       0.08174000       0.34265000
   144  C          0.86629000       0.91826000       0.84265000
   145  H          0.03990000       0.39840000       0.67460000
   146  H          0.46010000       0.60160000       0.17460000
   147  H          0.53990000       0.10160000       0.32540000
   148  H          0.96010000       0.89840000       0.82540000
   149  H          0.12650000       0.48480000       0.64310000
   150  H          0.37350000       0.51520000       0.14310000
   151  H          0.62650000       0.01520000       0.35690000
   152  H          0.87350000       0.98480000       0.85690000
   153  C          0.17511500       0.67889000       0.80429000
   154  C          0.32488500       0.32111000       0.30429000
   155  C          0.67511500       0.82111000       0.19571000
   156  C          0.82488500       0.17889000       0.69571000
   157  H          0.08530000       0.65130000       0.78910000
   158  H          0.41470000       0.34870000       0.28910000
   159  H          0.58530000       0.84870000       0.21090000
   160  H          0.91470000       0.15130000       0.71090000
   161  H          0.19980000       0.73150000       0.77410000
   162  H          0.30020000       0.26850000       0.27410000
   163  H          0.69980000       0.76850000       0.22590000
   164  H          0.80020000       0.23150000       0.72590000
   165  H          0.16560000       0.70130000       0.85150000
   166  H          0.33440000       0.29870000       0.35150000
   167  H          0.66560000       0.79870000       0.14850000
   168  H          0.83440000       0.20130000       0.64850000
   169  C          0.28561200       0.60786000       0.80096000
   170  C          0.21438800       0.39214000       0.30096000
   171  C          0.78561200       0.89214000       0.19904000
   172  C          0.71438800       0.10786000       0.69904000
   173  H          0.37060000       0.63320000       0.82420000
   174  H          0.12940000       0.36680000       0.32420000
   175  H          0.87060000       0.86680000       0.17580000
   176  H          0.62940000       0.13320000       0.67580000
   177  H          0.31060000       0.59800000       0.75210000
   178  H          0.18940000       0.40200000       0.25210000
   179  H          0.81060000       0.90200000       0.24790000
   180  H          0.68940000       0.09800000       0.74790000
   181  C          0.25141000       0.51046000       0.83305000
   182  C          0.24859000       0.48954000       0.33305000
   183  C          0.75141000       0.98954000       0.16695000
   184  C          0.74859000       0.01046000       0.66695000
   185  H          0.19260000       0.52210000       0.87490000
   186  H          0.30740000       0.47790000       0.37490000
   187  H          0.69260000       0.97790000       0.12510000
   188  H          0.80740000       0.02210000       0.62510000
   189  C          0.39041100       0.46607000       0.85725000
   190  C          0.10958900       0.53393000       0.35725000
   191  C          0.89041100       0.03393000       0.14275000
   192  C          0.60958900       0.96607000       0.64275000
   193  H          0.43690000       0.50880000       0.89030000
   194  H          0.06310000       0.49120000       0.39030000
   195  H          0.93690000      -0.00880000       0.10970000
   196  H          0.56310000       0.00880000       0.60970000
   197  H          0.45420000       0.45840000       0.81730000
   198  H          0.04580000       0.54160000       0.31730000
   199  H          0.95420000       0.04160000       0.18270000
   200  H          0.54580000       0.95840000       0.68270000
   201  C          0.17191000       0.35856000       0.59475000
   202  C          0.32809000       0.64144000       0.09475000
   203  C          0.67191000       0.14144000       0.40525000
   204  C          0.82809000       0.85856000       0.90525000
   205  C          0.21821000       0.25546000       0.61355000
   206  C          0.28179000       0.74454000       0.11355000
   207  C          0.71821000       0.24454000       0.38645000
   208  C          0.78179000       0.75546000       0.88645000
   209  H          0.17270000       0.20580000       0.58460000
   210  H          0.32730000       0.79420000       0.08460000
   211  H          0.67270000       0.29420000       0.41540000
   212  H          0.82730000       0.70580000       0.91540000
   213  C          0.38321000       0.26086000       0.60585000
   214  C          0.11679000       0.73914000       0.10585000
   215  C          0.88321000       0.23914000       0.39415000
   216  C          0.61679000       0.76086000       0.89415000
   217  H          0.42710000       0.19830000       0.59570000
   218  H          0.07290000       0.80170000       0.09570000
   219  H          0.92710000       0.30170000       0.40430000
   220  H          0.57290000       0.69830000       0.90430000
   221  C          0.40131000       0.33156000       0.54665000
   222  C          0.09869000       0.66844000       0.04665000
   223  C          0.90131000       0.16844000       0.45335000
   224  C          0.59869000       0.83156000       0.95335000
   225  H          0.38000000       0.29870000       0.50230000
   226  H          0.12000000       0.70130000       0.00230000
   227  H          0.88000000       0.20130000       0.49770000
   228  H          0.62000000       0.79870000      -0.00230000
   229  C          0.54501200       0.37857000       0.54035000
   230  C          0.95498800       0.62143000       0.04035000
   231  C          0.04501200       0.12143000       0.45965000
   232  C          0.45498800       0.87857000       0.95965000
   233  H          0.55670000       0.42540000       0.57750000
   234  H          0.94330000       0.57460000       0.07750000
   235  H          0.05670000       0.07460000       0.42250000
   236  H          0.44330000       0.92540000       0.92250000
   237  H          0.62060000       0.33080000       0.54510000
   238  H          0.87940000       0.66920000       0.04510000
   239  H          0.12060000       0.16920000       0.45490000
   240  H          0.37940000       0.83080000       0.95490000
   241  O          0.44947000       0.95705000       0.47234000
   242  O          0.05053000       0.04295000       0.97234000
   243  O          0.94947000       0.54295000       0.52766000
   244  O          0.55053000       0.45705000       0.02766000
   245  H          0.54020000       0.94960000       0.45810000
   246  H          0.95980000       0.05040000       0.95810000
   247  H          0.04020000       0.55040000       0.54190000
   248  H          0.45980000       0.44960000       0.04190000
   249  H          0.44520000       0.00370000       0.50410000
   250  H          0.05480000      -0.00370000       0.00410000
   251  H          0.94520000       0.49630000       0.49590000
   252  H          0.55480000       0.50370000      -0.00410000
   253  O          0.30726000       0.59094000       0.51373000
   254  O          0.19274000       0.40906000       0.01373000
   255  O          0.80726000       0.90906000       0.48627000
   256  O          0.69274000       0.09094000       0.98627000
   257  H          0.37220000       0.55910000       0.48830000
   258  H          0.12780000       0.44090000       0.98830000
   259  H          0.87220000       0.94090000       0.51170000
   260  H          0.62780000       0.05910000       0.01170000
   261  H          0.34950000       0.64030000       0.53480000
   262  H          0.15050000       0.35970000       0.03480000
   263  H          0.84950000       0.85970000       0.46520000
   264  H          0.65050000       0.14030000       0.96520000
   265  O          0.61231000       0.82316000       0.39374000
   266  O          0.88769000       0.17684000       0.89374000
   267  O          0.11231000       0.67684000       0.60626000
   268  O          0.38769000       0.32316000       0.10626000
   269  H          0.63880000       0.80430000       0.35100000
   270  H          0.86120000       0.19570000       0.85100000
   271  H          0.13880000       0.69570000       0.64900000
   272  H          0.36120000       0.30430000       0.14900000
   273  H          0.69020000       0.83920000       0.41830000
   274  H          0.80980000       0.16080000       0.91830000
   275  H          0.19020000       0.66080000       0.58170000
   276  H          0.30980000       0.33920000       0.08170000
   277  Cl         0.64513000       0.63511190       0.48902140
   278  Cl         0.85487000       0.36488810       0.98902140
   279  Cl         0.14513000       0.86488810       0.51097860
   280  Cl         0.35487000       0.13511190       0.01097860
