data_YUNXAH
_symmetry_space_group_name_H-M    'P1'
_symmetry_Int_Tables_number       1
loop_
_symmetry_equiv_pos_site_id
_symmetry_equiv_pos_as_xyz
1 x,y,z
_cell_length_a                   4.799811
_cell_length_b                   12.9273
_cell_length_c                   16.3764
_cell_angle_alpha                110.8133
_cell_angle_beta                 93.7813
_cell_angle_gamma                99.2173
loop_
_atom_site_label
_atom_site_type_symbol
_atom_site_fract_x
_atom_site_fract_y
_atom_site_fract_z
     1  Br         0.72593840       0.94431300       0.06856500
     2  Br         0.27406160       0.05568700       0.93143500
     3  Br         0.81729820       0.81278300       0.20748600
     4  Br         0.18270180       0.18721700       0.79251400
     5  Br         0.33963180       0.93261300       0.37686500
     6  Br         0.66036820       0.06738700       0.62313500
     7  Br         0.26710170       0.60705700       0.23364600
     8  Br         0.73289830       0.39294300       0.76635400
     9  Br         0.85313190       0.32892800       0.98440400
    10  Br         0.14686810       0.67107200       0.01559600
    11  O          0.66411100       0.14625000       0.37543000
    12  O          0.33588900       0.85375000       0.62457000
    13  H          0.76200000       0.20540000       0.37400000
    14  H          0.23800000       0.79460000       0.62600000
    15  O          0.58761100       0.25714000       0.26843000
    16  O          0.41238900       0.74286000       0.73157000
    17  O          0.28461100       0.43284000       0.31443000
    18  O          0.71538900       0.56716000       0.68557000
    19  H          0.26670000       0.37860000       0.33180000
    20  H          0.73330000       0.62140000       0.66820000
    21  C          0.45701500       0.10166000       0.30595000
    22  C          0.54298500       0.89834000       0.69405000
    23  C          0.40821500       0.15316000       0.24775000
    24  C          0.59178500       0.84684000       0.75225000
    25  C          0.19381500       0.10686000       0.17825000
    26  C          0.80618500       0.89314000       0.82175000
    27  H          0.16450000       0.14460000       0.13900000
    28  H          0.83550000       0.85540000       0.86100000
    29  C          0.01981500       0.00416000       0.16565000
    30  C         -0.01981500      -0.00416000       0.83435000
    31  C          0.05711500       0.94964000       0.22315000
    32  C          0.94288500       0.05036000       0.77685000
    33  C          0.27801600      -0.00076000       0.29395000
    34  C          0.72198400       0.00076000       0.70605000
    35  C          0.55891500       0.31706000       0.21375000
    36  C          0.44108500       0.68294000       0.78625000
    37  C          0.41811400       0.40746000       0.24165000
    38  C          0.58188600       0.59254000       0.75835000
    39  C          0.42651500       0.47746000       0.19305000
    40  C          0.57348500       0.52254000       0.80695000
    41  C          0.55851600       0.45606000       0.11735000
    42  C          0.44148400       0.54394000       0.88265000
    43  H          0.56430000       0.50500000       0.08560000
    44  H          0.43570000       0.49500000       0.91440000
    45  C          0.68131500       0.36166000       0.08935000
    46  C          0.31868500       0.63834000       0.91065000
    47  C          0.68881600       0.29317000       0.13685000
    48  C          0.31118400       0.70683000       0.86315000
    49  H          0.78080000       0.23040000       0.11770000
    50  H          0.21920000       0.76960000       0.88230000
    51  S          0.29484000       0.34063170       0.49949130
    52  S          0.70516000       0.65936830       0.50050870
    53  O          0.12921100       0.31014000       0.40913000
    54  O          0.87078900       0.68986000       0.59087000
    55  C          0.10871700       0.42998000       0.57505000
    56  C          0.89128300       0.57002000       0.42495000
    57  H          0.15120000       0.50570000       0.57310000
    58  H          0.84880000       0.49430000       0.42690000
    59  H          0.16820000       0.43380000       0.63460000
    60  H          0.83180000       0.56620000       0.36540000
    61  H          0.90360000       0.39970000       0.55910000
    62  H          0.09640000       0.60030000       0.44090000
    63  C          0.20420000       0.22038000       0.52846000
    64  C          0.79580000       0.77962000       0.47154000
    65  H          0.28280000       0.15790000       0.48970000
    66  H          0.71720000       0.84210000       0.51030000
    67  H         -0.00360000       0.19780000       0.52180000
    68  H          0.00360000       0.80220000       0.47820000
    69  H          0.28310000       0.23880000       0.58980000
    70  H          0.71690000       0.76120000       0.41020000
