data_YURSEJ
_symmetry_space_group_name_H-M    'P1'
_symmetry_Int_Tables_number       1
loop_
_symmetry_equiv_pos_site_id
_symmetry_equiv_pos_as_xyz
1 x,y,z
_cell_length_a                   12.6322
_cell_length_b                   10.3792
_cell_length_c                   13.8982
_cell_angle_alpha                90.0
_cell_angle_beta                 115.132
_cell_angle_gamma                90.0
loop_
_atom_site_label
_atom_site_type_symbol
_atom_site_fract_x
_atom_site_fract_y
_atom_site_fract_z
     1  Cl         0.08052000       0.05634000       0.59472000
     2  Cl         0.91948000       0.55634000       0.40528000
     3  Cl         0.97303000       0.24651000       0.72362000
     4  Cl         0.02697000       0.74651000       0.27638000
     5  Cl         0.67553000       0.24134000       0.59152000
     6  Cl         0.32447000       0.74134000       0.40848000
     7  Cl         0.59982000       0.04474000       0.38572000
     8  Cl         0.40018000       0.54474000       0.61428000
     9  Cl         0.85133000       0.91166000       0.38412000
    10  Cl         0.14867000       0.41166000       0.61588000
    11  Cl         0.84613000       0.18663000       0.38752000
    12  Cl         0.15387000       0.68663000       0.61248000
    13  O          0.90085000       0.96313000       0.78685000
    14  O          0.09915000       0.46313000       0.21315000
    15  O          0.05605000       0.86254000       0.77864000
    16  O          0.94395000       0.36254000       0.22136000
    17  O          0.23215000       0.80093000       0.90285000
    18  O          0.76785000       0.30093000       0.09715000
    19  O          0.25396000       0.40523000       0.90615000
    20  O          0.74604000       0.90523000       0.09385000
    21  O          0.09438000       0.38432000       0.92926000
    22  O          0.90562000       0.88432000       0.07074000
    23  C          0.90318000       0.91808900       0.61527000
    24  C          0.09682000       0.41808900       0.38473000
    25  C          0.93527000       0.04531100       0.57596000
    26  C          0.06473000       0.54531100       0.42404000
    27  C          0.88789000       0.15611000       0.61688000
    28  C          0.11211000       0.65611000       0.38312000
    29  C          0.77301000       0.15281000       0.56718000
    30  C          0.22699000       0.65281000       0.43282000
    31  C          0.74077000       0.04141200       0.49117000
    32  C          0.25923000       0.54141200       0.50883000
    33  C          0.76619000       0.91798800       0.55838000
    34  C          0.23381000       0.41798800       0.44162000
    35  C          0.84067000       0.04501200       0.45647000
    36  C          0.15933000       0.54501200       0.54353000
    37  C          0.94988000       0.91879000       0.73827000
    38  C          0.05012000       0.41879000       0.26173000
    39  C          0.12688000       0.86518900       0.89657000
    40  C          0.87312000       0.36518900       0.10343000
    41  C          0.16209000       0.00431100       0.92819000
    42  C          0.83791000       0.50431100       0.07181000
    43  C          0.07309000       0.79598900       0.95547000
    44  C          0.92691000       0.29598900       0.04453000
    45  C          0.04258000       0.65618900       0.92257000
    46  C          0.95742000       0.15618900       0.07743000
    47  C          0.14628000       0.59638900       0.91257000
    48  C          0.85372000       0.09638900       0.08743000
    49  C          0.23138000       0.67119000       0.90507000
    50  C          0.76862000       0.17119000       0.09493000
    51  C          0.33377000       0.61228900       0.90127000
    52  C          0.66623000       0.11228900       0.09873000
    53  C          0.42709000       0.68518900       0.89828000
    54  C          0.57291000       0.18518900       0.10172000
    55  C          0.52149000       0.62418600       0.89439000
    56  C          0.47851000       0.12418600       0.10561000
    57  C          0.52081100       0.48938400       0.88929000
    58  C          0.47918900      -0.01061600       0.11071000
    59  C          0.43161000       0.41898700       0.89299000
    60  C          0.56839000       0.91898700       0.10701000
    61  C          0.34109000       0.48008800       0.89977000
    62  C          0.65891000       0.98008800       0.10023000
    63  C          0.15891000       0.45718900       0.91658000
    64  C          0.84109000       0.95718900       0.08342000
    65  C          0.92868000       0.63789000       0.82367000
    66  C          0.07132000       0.13789000       0.17633000
    67  C          0.92098000       0.59039000       0.72807000
    68  C          0.07902000       0.09039000       0.27193000
    69  C          0.81208000       0.57468800       0.63928000
    70  C          0.18792000       0.07468800       0.36072000
    71  C          0.71319000       0.61028900       0.64759000
    72  C          0.28681000       0.11028900       0.35241000
    73  C          0.71739000       0.66258800       0.74219000
    74  C          0.28261000       0.16258800       0.25781000
    75  C          0.82339000       0.67318900       0.82838000
    76  C          0.17661000       0.17318900       0.17162000
    77  H          0.93710000       0.84290000       0.59910000
    78  H          0.06290000       0.34290000       0.40090000
    79  H          0.73310000       0.92290000       0.60910000
    80  H          0.26690000       0.42290000       0.39090000
    81  H          0.73710000       0.84290000       0.51410000
    82  H          0.26290000       0.34290000       0.48590000
    83  H          0.09510000       0.05210000       0.92510000
    84  H          0.90490000       0.55210000       0.07490000
    85  H          0.19010000       0.04210000       0.87910000
    86  H          0.80990000       0.54210000       0.12090000
    87  H          0.22410000       0.00710000       0.00010000
    88  H          0.77590000       0.50710000      -0.00010000
    89  H          0.12710000       0.79790000       0.03010000
    90  H          0.87290000       0.29790000       0.96990000
    91  H          0.00210000       0.84190000       0.94510000
    92  H         -0.00210000       0.34190000       0.05490000
    93  H          0.02710000       0.61290000       0.97710000
    94  H          0.97290000       0.11290000       0.02290000
    95  H          0.42410000       0.77890000       0.89910000
    96  H          0.57590000       0.27890000       0.10090000
    97  H          0.58710000       0.67390000       0.89510000
    98  H          0.41290000       0.17390000       0.10490000
    99  H          0.58510000       0.44580000       0.88310000
   100  H          0.41490000       0.94580000       0.11690000
   101  H          0.43310000       0.32690000       0.89110000
   102  H          0.56690000       0.82690000       0.10890000
   103  H         -0.00790000       0.56790000       0.72210000
   104  H          0.00790000       0.06790000       0.27790000
   105  H          0.80810000       0.53990000       0.57310000
   106  H          0.19190000       0.03990000       0.42690000
   107  H          0.63810000       0.59990000       0.58710000
   108  H          0.36190000       0.09990000       0.41290000
   109  H          0.64610000       0.69190000       0.74610000
   110  H          0.35390000       0.19190000       0.25390000
   111  H          0.82610000       0.70690000       0.89510000
   112  H          0.17390000       0.20690000       0.10490000
   113  C          0.48121000       0.04931400       0.73787000
   114  C          0.51879000       0.54931400       0.26213000
   115  Cl         0.44644000       0.20054000       0.67713000
   116  Cl         0.55356000       0.70054000       0.32287000
   117  Cl         0.42727000       0.93174000       0.64254000
   118  Cl         0.57273000       0.43174000       0.35746000
   119  Cl         0.42025000       0.03796000       0.82824000
   120  Cl         0.57975000       0.53796000       0.17176000
   121  Cl         0.62884000       0.03137000       0.80454000
   122  Cl         0.37116000       0.53137000       0.19546000
