data_YUSYUH
_symmetry_space_group_name_H-M    'P1'
_symmetry_Int_Tables_number       1
loop_
_symmetry_equiv_pos_site_id
_symmetry_equiv_pos_as_xyz
1 x,y,z
_cell_length_a                   5.36485
_cell_length_b                   7.13807
_cell_length_c                   12.261312
_cell_angle_alpha                96.6713
_cell_angle_beta                 93.5763
_cell_angle_gamma                104.2563
loop_
_atom_site_label
_atom_site_type_symbol
_atom_site_fract_x
_atom_site_fract_y
_atom_site_fract_z
     1  I          0.59898500       0.26766400       0.13722400
     2  I          0.40101500       0.73233600       0.86277600
     3  I          0.12497400       0.57484200       0.60488100
     4  I          0.87502600       0.42515800       0.39511900
     5  N          0.09434200       0.82844800       0.18952600
     6  N          0.90565800       0.17155200       0.81047400
     7  N          0.44400600       0.87168700       0.37153200
     8  N          0.55599400       0.12831300       0.62846800
     9  C          0.27964700      -0.01543800       0.36671200
    10  C          0.72035300       0.01543800       0.63328800
    11  C          0.91291900       0.80630100       0.09016800
    12  C          0.08708100       0.19369900       0.90983200
    13  C          0.10267300       0.96625100       0.27511300
    14  C          0.89732700       0.03374900       0.72488700
    15  C          0.25496600       0.71058700       0.19222900
    16  C          0.74503400       0.28941300       0.80777100
    17  C          0.42941100       0.73577300       0.28485200
    18  C          0.57058900       0.26422700       0.71514800
    19  H          0.25171900       0.61215000       0.13281500
    20  H          0.74828100       0.38785000       0.86718500
    21  H          0.54003100       0.65899600       0.28449900
    22  H          0.45996900       0.34100400       0.71550100
    23  H          0.28823400       0.08558000       0.42579500
    24  H          0.71176600       0.91442000       0.57420500
    25  H          0.00519100       0.04950600       0.26459200
    26  H         -0.00519100       0.95049400       0.73540800
    27  H          0.84003400       0.90782200       0.09723100
    28  H          0.15996600       0.09217800       0.90276900
    29  H          0.01328000       0.81369400       0.02589600
    30  H         -0.01328000       0.18630600       0.97410400
    31  H          0.79652500       0.67687000       0.08314600
    32  H          0.20347500       0.32313000       0.91685400
