data_YUTQIP
_symmetry_space_group_name_H-M    'P1'
_symmetry_Int_Tables_number       1
loop_
_symmetry_equiv_pos_site_id
_symmetry_equiv_pos_as_xyz
1 x,y,z
_cell_length_a                   10.5924
_cell_length_b                   17.9225
_cell_length_c                   11.1614
_cell_angle_alpha                90.0
_cell_angle_beta                 99.252
_cell_angle_gamma                90.0
loop_
_atom_site_label
_atom_site_type_symbol
_atom_site_fract_x
_atom_site_fract_y
_atom_site_fract_z
     1  S          0.66217300       0.57717200       0.56541300
     2  S          0.33782700       0.07717200       0.93458700
     3  S          0.33782700       0.42282800       0.43458700
     4  S          0.66217300       0.92282800       0.06541300
     5  O          0.57890100       0.58513600       0.65614900
     6  O          0.42109900       0.08513600       0.84385100
     7  O          0.42109900       0.41486400       0.34385100
     8  O          0.57890100       0.91486400       0.15614900
     9  O          0.57685100       0.58114600       0.43754100
    10  O          0.42314900       0.08114600       0.06245900
    11  O          0.42314900       0.41885400       0.56245900
    12  O          0.57685100       0.91885400       0.93754100
    13  H          0.51940000       0.61340000       0.43850000
    14  H          0.48060000       0.11340000       0.06150000
    15  H          0.48060000       0.38660000       0.56150000
    16  H          0.51940000       0.88660000       0.93850000
    17  O          0.72505100       0.50505600       0.56684100
    18  O          0.27494900       0.00505600       0.93315900
    19  O          0.27494900       0.49494400       0.43315900
    20  O          0.72505100      -0.00505600       0.06684100
    21  O          0.75266100       0.63911600       0.57133100
    22  O          0.24733900       0.13911600       0.92866900
    23  O          0.24733900       0.36088400       0.42866900
    24  O          0.75266100       0.86088400       0.07133100
    25  S          0.39851300       0.75550200       0.40181300
    26  S          0.60148700       0.25550200       0.09818700
    27  S          0.60148700       0.24449800       0.59818700
    28  S          0.39851300       0.74449800       0.90181300
    29  O          0.39138100       0.67389600       0.42549100
    30  O          0.60861900       0.17389600       0.07450900
    31  O          0.60861900       0.32610400       0.57450900
    32  O          0.39138100       0.82610400       0.92549100
    33  O          0.50129110       0.79014700       0.48587100
    34  O          0.49870890       0.29014700       0.01412900
    35  O          0.49870890       0.20985300       0.51412900
    36  O          0.50129110       0.70985300       0.98587100
    37  O          0.27443100       0.78993600       0.41375900
    38  O          0.72556900       0.28993600       0.08624100
    39  O          0.72556900       0.21006400       0.58624100
    40  O          0.27443100       0.71006400       0.91375900
    41  O          0.42147100       0.76415600       0.27366900
    42  O          0.57852900       0.26415600       0.22633100
    43  O          0.57852900       0.23584400       0.72633100
    44  O          0.42147100       0.73584400       0.77366900
    45  C          0.19519150       0.50258800       0.72404140
    46  C          0.80480850       0.00258800       0.77595860
    47  C          0.80480850       0.49741200       0.27595860
    48  C          0.19519150      -0.00258800       0.22404140
    49  H          0.20000000       0.47350000       0.80010000
    50  H          0.80000000       0.97350000       0.69990000
    51  H          0.80000000       0.52650000       0.19990000
    52  H          0.20000000       0.02650000       0.30010000
    53  H          0.19550000       0.46690000       0.65630000
    54  H          0.80450000       0.96690000       0.84370000
    55  H          0.80450000       0.53310000       0.34370000
    56  H          0.19550000       0.03310000       0.15630000
    57  N          0.30210120       0.60129700       0.62212110
    58  N          0.69789880       0.10129700       0.87787890
    59  N          0.69789880       0.39870300       0.37787890
    60  N          0.30210120       0.89870300       0.12212110
    61  H          0.30290000       0.57180000       0.55590000
    62  H          0.69710000       0.07180000       0.94410000
    63  H          0.69710000       0.42820000       0.44410000
    64  H          0.30290000       0.92820000       0.05590000
    65  H          0.37160000       0.63180000       0.62930000
    66  H          0.62840000       0.13180000       0.87070000
    67  H          0.62840000       0.36820000       0.37070000
    68  H          0.37160000       0.86820000       0.12930000
    69  C          0.31146140       0.55327800       0.73257130
    70  C          0.68853860       0.05327800       0.76742870
    71  C          0.68853860       0.44672200       0.26742870
    72  C          0.31146140       0.94672200       0.23257130
    73  H          0.31690000       0.58510000       0.80570000
    74  H          0.68310000       0.08510000       0.69430000
    75  H          0.68310000       0.41490000       0.19430000
    76  H          0.31690000       0.91490000       0.30570000
    77  H          0.39010000       0.52260000       0.74030000
    78  H          0.60990000       0.02260000       0.75970000
    79  H          0.60990000       0.47740000       0.25970000
    80  H          0.39010000       0.97740000       0.24030000
    81  C          0.06623150       0.59747900       0.59190150
    82  C          0.93376850       0.09747900       0.90809850
    83  C          0.93376850       0.40252100       0.40809850
    84  C          0.06623150       0.90252100       0.09190150
    85  H          0.06220000       0.56620000       0.51830000
    86  H          0.93780000       0.06620000       0.98170000
    87  H          0.93780000       0.43380000       0.48170000
    88  H          0.06220000       0.93380000       0.01830000
    89  H         -0.01210000       0.62850000       0.58280000
    90  H          0.01210000       0.12850000       0.91720000
    91  H          0.01210000       0.37150000       0.41720000
    92  H         -0.01210000       0.87150000       0.08280000
    93  C          0.18310140       0.64782800       0.60349140
    94  C          0.81689860       0.14782800       0.89650860
    95  C          0.81689860       0.35217200       0.39650860
    96  C          0.18310140       0.85217200       0.10349140
    97  H          0.17990000       0.67820000       0.52900000
    98  H          0.82010000       0.17820000       0.97100000
    99  H          0.82010000       0.32180000       0.47100000
   100  H          0.17990000       0.82180000       0.02900000
   101  H          0.18370000       0.68210000       0.67310000
   102  H          0.81630000       0.18210000       0.82690000
   103  H          0.81630000       0.31790000       0.32690000
   104  H          0.18370000       0.81790000       0.17310000
   105  C          0.07120150       0.54724900       0.70327150
   106  C          0.92879850       0.04724900       0.79672850
   107  C          0.92879850       0.45275100       0.29672850
   108  C          0.07120150       0.95275100       0.20327150
   109  H          0.06550000       0.57820000       0.77570000
   110  H          0.93450000       0.07820000       0.72430000
   111  H          0.93450000       0.42180000       0.22430000
   112  H          0.06550000       0.92180000       0.27570000
   113  H         -0.00270000       0.51270000       0.69120000
   114  H          0.00270000       0.01270000       0.80880000
   115  H          0.00270000       0.48730000       0.30880000
   116  H         -0.00270000       0.98730000       0.19120000
   117  N          0.32098120       0.63977700       0.14102110
   118  N          0.67901880       0.13977700       0.35897890
   119  N          0.67901880       0.36022300       0.85897890
   120  N          0.32098120       0.86022300       0.64102110
   121  H          0.35700000       0.67680000       0.19090000
   122  H          0.64300000       0.17680000       0.30910000
   123  H          0.64300000       0.32320000       0.80910000
   124  H          0.35700000       0.82320000       0.69090000
   125  H          0.31560000       0.65600000       0.06310000
   126  H          0.68440000       0.15600000       0.43690000
   127  H          0.68440000       0.34400000       0.93690000
   128  H          0.31560000       0.84400000       0.56310000
   129  C          0.21075150       0.49250800       0.09492140
   130  C          0.78924850      -0.00749200       0.40507860
   131  C          0.78924850       0.50749200       0.90507860
   132  C          0.21075150       0.00749200       0.59492140
   133  H          0.21250000       0.47100000       0.17680000
   134  H          0.78750000       0.97100000       0.32320000
   135  H          0.78750000       0.52900000       0.82320000
   136  H          0.21250000       0.02900000       0.67680000
   137  H          0.17250000       0.45510000       0.03450000
   138  H          0.82750000       0.95510000       0.46550000
   139  H          0.82750000       0.54490000       0.96550000
   140  H          0.17250000       0.04490000       0.53450000
   141  C          0.40461140       0.57238800       0.15854140
   142  C          0.59538860       0.07238800       0.34145860
   143  C          0.59538860       0.42761200       0.84145860
   144  C          0.40461140       0.92761200       0.65854140
   145  H          0.41390000       0.55570000       0.24410000
   146  H          0.58610000       0.05570000       0.25590000
   147  H          0.58610000       0.44430000       0.75590000
   148  H          0.41390000       0.94430000       0.74410000
   149  H          0.49070000       0.58500000       0.14060000
   150  H          0.50930000       0.08500000       0.35940000
   151  H          0.50930000       0.41500000       0.85940000
   152  H          0.49070000       0.91500000       0.64060000
   153  C          0.18991140       0.62418900       0.16711140
   154  C          0.81008860       0.12418900       0.33288860
   155  C          0.81008860       0.37581100       0.83288860
   156  C          0.18991140       0.87581100       0.66711140
   157  H          0.13740000       0.67010000       0.15520000
   158  H          0.86260000       0.17010000       0.34480000
   159  H          0.86260000       0.32990000       0.84480000
   160  H          0.13740000       0.82990000       0.65520000
   161  H          0.19460000       0.60800000       0.25250000
   162  H          0.80540000       0.10800000       0.24750000
   163  H          0.80540000       0.39200000       0.74750000
   164  H          0.19460000       0.89200000       0.75250000
   165  C          0.34720150       0.50991800       0.07536140
   166  C          0.65279850       0.00991800       0.42463860
   167  C          0.65279850       0.49008200       0.92463860
   168  C          0.34720150       0.99008200       0.57536140
   169  H          0.40070000       0.46460000       0.09150000
   170  H          0.59930000       0.96460000       0.40850000
   171  H          0.59930000       0.53540000       0.90850000
   172  H          0.40070000       0.03540000       0.59150000
   173  H          0.34660000       0.52470000      -0.01020000
   174  H          0.65340000       0.02470000       0.51020000
   175  H          0.65340000       0.47530000       0.01020000
   176  H          0.34660000       0.97530000       0.48980000
   177  C          0.12870150       0.56320900       0.08232150
   178  C          0.87129850       0.06320900       0.41767850
   179  C          0.87129850       0.43679100       0.91767850
   180  C          0.12870150       0.93679100       0.58232150
   181  H          0.11820000       0.58120000      -0.00260000
   182  H          0.88180000       0.08120000       0.50260000
   183  H          0.88180000       0.41880000       0.00260000
   184  H          0.11820000       0.91880000       0.49740000
   185  H          0.04280000       0.55150000       0.10150000
   186  H          0.95720000       0.05150000       0.39850000
   187  H          0.95720000       0.44850000       0.89850000
   188  H          0.04280000       0.94850000       0.60150000
   189  N          0.67984120       0.73600700       0.74774120
   190  N          0.32015880       0.23600700       0.75225880
   191  N          0.32015880       0.26399300       0.25225880
   192  N          0.67984120       0.76399300       0.24774120
   193  H          0.69010000       0.70230000       0.68900000
   194  H          0.30990000       0.20230000       0.81100000
   195  H          0.30990000       0.29770000       0.31100000
   196  H          0.69010000       0.79770000       0.18900000
   197  H          0.59470000       0.73940000       0.75100000
   198  H          0.40530000       0.23940000       0.74900000
   199  H          0.40530000       0.26060000       0.24900000
   200  H          0.59470000       0.76060000       0.25100000
   201  C          0.86970150       0.80450900       0.70869150
   202  C          0.13029850       0.30450900       0.79130850
   203  C          0.13029850       0.19549100       0.29130850
   204  C          0.86970150       0.69549100       0.20869150
   205  H          0.88280000       0.76980000       0.64280000
   206  H          0.11720000       0.26980000       0.85720000
   207  H          0.11720000       0.23020000       0.35720000
   208  H          0.88280000       0.73020000       0.14280000
   209  H          0.90230000       0.85410000       0.68950000
   210  H          0.09770000       0.35410000       0.81050000
   211  H          0.09770000       0.14590000       0.31050000
   212  H          0.90230000       0.64590000       0.18950000
   213  C          0.89016160       0.70228100       0.86207160
   214  C          0.10983840       0.20228100       0.63792840
   215  C          0.10983840       0.29771900       0.13792840
   216  C          0.89016160       0.79771900       0.36207160
   217  H          0.90400000       0.66410000       0.80140000
   218  H          0.09600000       0.16410000       0.69860000
   219  H          0.09600000       0.33590000       0.19860000
   220  H          0.90400000       0.83590000       0.30140000
   221  H          0.93570000       0.68600000       0.94220000
   222  H          0.06430000       0.18600000       0.55780000
   223  H          0.06430000       0.31400000       0.05780000
   224  H          0.93570000       0.81400000       0.44220000
   225  C          0.72742140       0.81012800       0.71454150
   226  C          0.27257860       0.31012800       0.78545850
   227  C          0.27257860       0.18987200       0.28545850
   228  C          0.72742140       0.68987200       0.21454150
   229  H          0.71290000       0.84770000       0.77580000
   230  H          0.28710000       0.34770000       0.72420000
   231  H          0.28710000       0.15230000       0.22420000
   232  H          0.71290000       0.65230000       0.27580000
   233  H          0.68040000       0.82600000       0.63480000
   234  H          0.31960000       0.32600000       0.86520000
   235  H          0.31960000       0.17400000       0.36520000
   236  H          0.68040000       0.67400000       0.13480000
   237  C          0.74807160       0.70877900       0.86681160
   238  C          0.25192840       0.20877900       0.63318840
   239  C          0.25192840       0.29122100       0.13318840
   240  C          0.74807160       0.79122100       0.36681160
   241  H          0.71380000       0.65950000       0.88540000
   242  H          0.28620000       0.15950000       0.61460000
   243  H          0.28620000       0.34050000       0.11460000
   244  H          0.71380000       0.84050000       0.38540000
   245  H          0.73430000       0.74400000       0.93180000
   246  H          0.26570000       0.24400000       0.56820000
   247  H          0.26570000       0.25600000       0.06820000
   248  H          0.73430000       0.75600000       0.43180000
   249  C          0.94462150       0.77687100       0.82831150
   250  C          0.05537850       0.27687100       0.67168850
   251  C          0.05537850       0.22312900       0.17168850
   252  C          0.94462150       0.72312900       0.32831150
   253  H          0.93900000       0.81390000       0.89300000
   254  H          0.06100000       0.31390000       0.60700000
   255  H          0.06100000       0.18610000       0.10700000
   256  H          0.93900000       0.68610000       0.39300000
   257  H          0.03580000       0.77080000       0.82050000
   258  H          0.96420000       0.27080000       0.67950000
   259  H          0.96420000       0.22920000       0.17950000
   260  H          0.03580000       0.72920000       0.32050000
