data_YUTQEL
_symmetry_space_group_name_H-M    'P1'
_symmetry_Int_Tables_number       1
loop_
_symmetry_equiv_pos_site_id
_symmetry_equiv_pos_as_xyz
1 x,y,z
_cell_length_a                   8.33063
_cell_length_b                   8.71222
_cell_length_c                   12.43074
_cell_angle_alpha                98.6833
_cell_angle_beta                 97.7373
_cell_angle_gamma                99.3983
loop_
_atom_site_label
_atom_site_type_symbol
_atom_site_fract_x
_atom_site_fract_y
_atom_site_fract_z
     1  C          0.77416130       0.33187120       0.22248800
     2  C          0.22583870       0.66812880       0.77751200
     3  C          0.85513130       0.33777120       0.13113900
     4  C          0.14486870       0.66222880       0.86886100
     5  C          0.77605150       0.28436140       0.02290900
     6  C          0.22394850       0.71563860       0.97709100
     7  H          0.83550000       0.29140000       0.96320000
     8  H          0.16450000       0.70860000       0.03680000
     9  C          0.52304150       0.21255150       0.09167100
    10  C          0.47695850       0.78744850       0.90832900
    11  H          0.40850000       0.16900000       0.07820000
    12  H          0.59150000       0.83100000       0.92180000
    13  C          0.60414130       0.26808130       0.19972900
    14  C          0.39585870       0.73191870       0.80027100
    15  C          0.50529130       0.26201130       0.29144900
    16  C          0.49470870       0.73798870       0.70855100
    17  C          0.47656140       0.12861130       0.34104900
    18  C          0.52343860       0.87138870       0.65895100
    19  C          0.38144140       0.12012150       0.42447100
    20  C          0.61855860       0.87987850       0.57552900
    21  H          0.36460000       0.02760000       0.45650000
    22  H          0.63540000       0.97240000       0.54350000
    23  C          0.31167150       0.24852160       0.46023110
    24  C          0.68832850       0.75147840       0.53976890
    25  H          0.24660000       0.24410000       0.51720000
    26  H          0.75340000       0.75590000       0.48280000
    27  C          0.43238140       0.38827130       0.33025100
    28  C          0.56761860       0.61172870       0.66974900
    29  C          0.33610150       0.38351160       0.41341110
    30  C          0.66389850       0.61648840       0.58658890
    31  H          0.28790000       0.47140000       0.43770000
    32  H          0.71210000       0.52860000       0.56230000
    33  C          0.60897160       0.22065150       0.00366100
    34  C          0.39102840       0.77934850      -0.00366100
    35  H          0.55310000       0.18250000       0.93030000
    36  H          0.44690000       0.81750000       0.06970000
    37  B          0.86796140       0.39672140       0.34516100
    38  B          0.13203860       0.60327860       0.65483900
    39  O          0.92407110       0.55444900       0.38238700
    40  O          0.07592890       0.44555100       0.61761300
    41  O          0.89019110       0.29285100       0.41379700
    42  O          0.10980890       0.70714900       0.58620300
    43  Cl         0.56394400       0.96622700       0.29838200
    44  Cl         0.43605600       0.03377300       0.70161800
    45  Cl         0.46307400       0.55927300       0.27352300
    46  Cl         0.53692600       0.44072700       0.72647700
    47  Cl         0.06696300       0.41387400       0.15296200
    48  Cl         0.93303700       0.58612600       0.84703800
    49  H          0.90220000       0.61211900       0.33831300
    50  H          0.09780000       0.38788100       0.66168700
    51  H          0.94120000       0.33620000       0.47671200
    52  H          0.05880000       0.66380000       0.52328800
    53  C          0.82695160       0.75012140       0.14313100
    54  C          0.17304840       0.24987860       0.85686900
    55  H          0.70670000       0.71540000       0.11840000
    56  H          0.29330000       0.28460000       0.88160000
    57  H          0.88430000       0.67020000       0.10770000
    58  H          0.11570000       0.32980000       0.89230000
    59  C          0.88574170       0.91105150       0.11452110
    60  C          0.11425830       0.08894850       0.88547890
    61  H          0.80140000       0.97850000       0.12020000
    62  H          0.19860000       0.02150000       0.87980000
    63  H          0.91420000       0.90120000       0.03930000
    64  H          0.08580000       0.09880000       0.96070000
    65  C          0.03885180       0.97668160       0.20241120
    66  C          0.96114820       0.02331840       0.79758880
    67  H          0.13690000       0.93780000       0.18040000
    68  H          0.86310000       0.06220000       0.81960000
    69  H          0.06210000       0.09370000       0.21650000
    70  H          0.93790000       0.90630000       0.78350000
    71  C         -0.01008000       0.91251170       0.30259120
    72  C          0.01008000       0.08748830       0.69740880
    73  H          0.08680000       0.88730000       0.34710000
    74  H          0.91320000       0.11270000       0.65290000
    75  H          0.94430000      -0.00860000       0.34950000
    76  H          0.05570000       0.00860000       0.65050000
    77  O          0.86646120       0.77103100       0.26144700
    78  O          0.13353880       0.22896900       0.73855300
