data_YUVREO
_symmetry_space_group_name_H-M    'P1'
_symmetry_Int_Tables_number       1
loop_
_symmetry_equiv_pos_site_id
_symmetry_equiv_pos_as_xyz
1 x,y,z
_cell_length_a                   22.57785
_cell_length_b                   7.55102
_cell_length_c                   20.52155
_cell_angle_alpha                90.0
_cell_angle_beta                 90.0
_cell_angle_gamma                90.0
loop_
_atom_site_label
_atom_site_type_symbol
_atom_site_fract_x
_atom_site_fract_y
_atom_site_fract_z
     1  I          0.17530300       0.25000000       0.33709400
     2  I          0.32469700       0.75000000       0.83709400
     3  I          0.67530300       0.25000000       0.16290600
     4  I          0.82469700       0.75000000       0.66290600
     5  I          0.91442700       0.25000000       0.41080300
     6  I          0.58557300       0.75000000       0.91080300
     7  I          0.41442700       0.25000000       0.08919700
     8  I          0.08557300       0.75000000       0.58919700
     9  I          0.11771300       0.25000000       0.09267400
    10  I          0.38228700       0.75000000       0.59267400
    11  I          0.61771300       0.25000000       0.40732600
    12  I          0.88228700       0.75000000       0.90732600
    13  I          0.85909700       0.25000000       0.17835300
    14  I          0.64090300       0.75000000       0.67835300
    15  I          0.35909700       0.25000000       0.32164700
    16  I          0.14090300       0.75000000       0.82164700
    17  F          0.09374000       0.25000000       0.58443000
    18  F          0.40626000       0.75000000       0.08443000
    19  F          0.59374000       0.25000000       0.91557000
    20  F          0.90626000       0.75000000       0.41557000
    21  F          0.17914000       0.25000000       0.49414000
    22  F          0.32086000       0.75000000      -0.00586000
    23  F          0.67914000       0.25000000       0.00586000
    24  F          0.82086000       0.75000000       0.50586000
    25  F          0.97926000       0.25000000       0.54993000
    26  F          0.52074000       0.75000000       0.04993000
    27  F          0.47926000       0.25000000       0.95007000
    28  F          0.02074000       0.75000000       0.45007000
    29  F          0.03130180       0.93975000       0.31844170
    30  F          0.46869820       0.06025000       0.81844170
    31  F          0.53130180       0.56025000       0.18155830
    32  F          0.96869820       0.43975000       0.68155830
    33  F          0.96869820       0.06025000       0.68155830
    34  F          0.53130180       0.93975000       0.18155830
    35  F          0.46869820       0.43975000       0.81844170
    36  F          0.03130180       0.56025000       0.31844170
    37  F          0.00419170       0.93975000       0.19159170
    38  F          0.49580830       0.06025000       0.69159170
    39  F          0.50419170       0.56025000       0.30840830
    40  F         -0.00419170       0.43975000       0.80840830
    41  F         -0.00419170       0.06025000       0.80840830
    42  F          0.50419170       0.93975000       0.30840830
    43  F          0.49580830       0.43975000       0.69159170
    44  F          0.00419170       0.56025000       0.19159170
    45  F          0.04744000       0.25000000       0.95757000
    46  F          0.45256000       0.75000000       0.45757000
    47  F          0.54744000       0.25000000       0.54243000
    48  F          0.95256000       0.75000000       0.04243000
    49  F          0.93205000       0.25000000       0.92847000
    50  F          0.56795000       0.75000000       0.42847000
    51  F          0.43205000       0.25000000       0.57153000
    52  F          0.06795000       0.75000000       0.07153000
    53  F          0.85057000       0.25000000       0.02224000
    54  F          0.64943000       0.75000000       0.52224000
    55  F          0.35057000       0.25000000       0.47776000
    56  F          0.14943000       0.75000000       0.97776000
    57  C          0.07816000       0.25000000       0.52105000
    58  C          0.42184000       0.75000000       0.02105000
    59  C          0.57816000       0.25000000       0.97895000
    60  C          0.92184000       0.75000000       0.47895000
    61  C          0.12195000       0.25000000       0.47535000
    62  C          0.37805000       0.75000000       0.97535000
    63  C          0.62195000       0.25000000       0.02465000
    64  C          0.87805000       0.75000000       0.52465000
    65  C          0.10914000       0.25000000       0.40955000
    66  C          0.39086000       0.75000000       0.90955000
    67  C          0.60914000       0.25000000       0.09045000
    68  C          0.89086000       0.75000000       0.59045000
    69  C          0.04954000       0.25000000       0.39154000
    70  C          0.45046000       0.75000000       0.89154000
    71  C          0.54954000       0.25000000       0.10846000
    72  C          0.95046000       0.75000000       0.60846000
    73  C          0.00384000       0.25000000       0.43834000
    74  C          0.49616000       0.75000000       0.93834000
    75  C          0.50384000       0.25000000       0.06166000
    76  C         -0.00384000       0.75000000       0.56166000
    77  C          0.02016000       0.25000000       0.50294000
    78  C          0.47984000       0.75000000       0.00294000
    79  C          0.52016000       0.25000000      -0.00294000
    80  C          0.97984000       0.75000000       0.49706000
    81  C          0.03243000       0.25000000       0.32124000
    82  C          0.46757000       0.75000000       0.82124000
    83  C          0.53243000       0.25000000       0.17876000
    84  C          0.96757000       0.75000000       0.67876000
    85  C          0.02492000       0.09308000       0.28752000
    86  C          0.47508000       0.90692000       0.78752000
    87  C          0.52492000       0.40692000       0.21248000
    88  C          0.97508000       0.59308000       0.71248000
    89  C          0.97508000       0.90692000       0.71248000
    90  C          0.52492000       0.09308000       0.21248000
    91  C          0.47508000       0.59308000       0.78752000
    92  C          0.02492000       0.40692000       0.28752000
    93  C          0.01052000       0.09478000       0.22233000
    94  C          0.48948000       0.90522000       0.72233000
    95  C          0.51052000       0.40522000       0.27767000
    96  C          0.98948000       0.59478000       0.77767000
    97  C          0.98948000       0.90522000       0.77767000
    98  C          0.51052000       0.09478000       0.27767000
    99  C          0.48948000       0.59478000       0.72233000
   100  C          0.01052000       0.40522000       0.22233000
   101  C          0.00313000       0.25000000       0.18874000
   102  C          0.49687000       0.75000000       0.68874000
   103  C          0.50313000       0.25000000       0.31126000
   104  C         -0.00313000       0.75000000       0.81126000
   105  C          0.98396000       0.25000000       0.11914000
   106  C          0.51604000       0.75000000       0.61914000
   107  C          0.48396000       0.25000000       0.38086000
   108  C          0.01604000       0.75000000       0.88086000
   109  C          0.02715000       0.25000000       0.06974000
   110  C          0.47285000       0.75000000       0.56974000
   111  C          0.52715000       0.25000000       0.43026000
   112  C          0.97285000       0.75000000       0.93026000
   113  C          0.00756000       0.25000000       0.00625000
   114  C          0.49244000       0.75000000       0.50625000
   115  C          0.50756000       0.25000000       0.49375000
   116  C          0.99244000       0.75000000      -0.00625000
   117  C          0.94903000       0.25000000       0.99115000
   118  C          0.55097000       0.75000000       0.49115000
   119  C          0.44903000       0.25000000       0.50885000
   120  C          0.05097000       0.75000000       0.00885000
   121  C          0.90735000       0.25000000       0.03875000
   122  C          0.59265000       0.75000000       0.53875000
   123  C          0.40735000       0.25000000       0.46125000
   124  C          0.09265000       0.75000000       0.96125000
   125  C          0.92406000       0.25000000       0.10434000
   126  C          0.57594000       0.75000000       0.60434000
   127  C          0.42406000       0.25000000       0.39566000
   128  C          0.07594000       0.75000000       0.89566000
   129  N          0.21194000       0.75000000       0.38894000
   130  N          0.28806000       0.25000000       0.88894000
   131  N          0.71194000       0.75000000       0.11106000
   132  N          0.78806000       0.25000000       0.61106000
   133  N          0.19933000       0.75000000       0.21003000
   134  N          0.30067000       0.25000000       0.71003000
   135  N          0.69933000       0.75000000       0.28997000
   136  N          0.80067000       0.25000000       0.78997000
   137  N          0.34453000       0.75000000       0.28833000
   138  N          0.15547000       0.25000000       0.78833000
   139  N          0.84453000       0.75000000       0.21167000
   140  N          0.65547000       0.25000000       0.71167000
   141  C          0.23624000       0.75000000       0.33014000
   142  C          0.26376000       0.25000000       0.83014000
   143  C          0.73624000       0.75000000       0.16986000
   144  C          0.76376000       0.25000000       0.66986000
   145  C          0.23154000       0.75000000       0.26334000
   146  C          0.26846000       0.25000000       0.76334000
   147  C          0.73154000       0.75000000       0.23666000
   148  C          0.76846000       0.25000000       0.73666000
   149  C          0.28654000       0.75000000       0.29194000
   150  C          0.21346000       0.25000000       0.79194000
   151  C          0.78654000       0.75000000       0.20806000
   152  C          0.71346000       0.25000000       0.70806000
   153  C          0.24996000       0.75000000       0.44625000
   154  C          0.25004000       0.25000000       0.94625000
   155  C          0.74996000       0.75000000       0.05375000
   156  C          0.75004000       0.25000000       0.55375000
   157  C          0.14885000       0.75000000       0.39765000
   158  C          0.35115000       0.25000000       0.89765000
   159  C          0.64885000       0.75000000       0.10235000
   160  C          0.85115000       0.25000000       0.60235000
   161  C          0.13595000       0.75000000       0.21236000
   162  C          0.36405000       0.25000000       0.71236000
   163  C          0.63595000       0.75000000       0.28764000
   164  C          0.86405000       0.25000000       0.78764000
   165  C          0.22645000       0.75000000       0.14555000
   166  C          0.27355000       0.25000000       0.64555000
   167  C          0.72645000       0.75000000       0.35445000
   168  C          0.77355000       0.25000000       0.85445000
   169  C          0.37375000       0.75000000       0.22575000
   170  C          0.12625000       0.25000000       0.72575000
   171  C          0.87375000       0.75000000       0.27425000
   172  C          0.62625000       0.25000000       0.77425000
   173  C          0.37884000       0.75000000       0.34835000
   174  C          0.12116000       0.25000000       0.84835000
   175  C          0.87884000       0.75000000       0.15165000
   176  C          0.62116000       0.25000000       0.65165000
   177  H          0.29070000       0.75000000       0.43270000
   178  H          0.20930000       0.25000000       0.93270000
   179  H          0.79070000       0.75000000       0.06730000
   180  H          0.70930000       0.25000000       0.56730000
   181  H          0.24210000       0.64620000       0.47180000
   182  H          0.25790000       0.35380000       0.97180000
   183  H          0.74210000       0.85380000       0.02820000
   184  H          0.75790000       0.14620000       0.52820000
   185  H          0.75790000       0.35380000       0.52820000
   186  H          0.74210000       0.64620000       0.02820000
   187  H          0.25790000       0.14620000       0.97180000
   188  H          0.24210000       0.85380000       0.47180000
   189  H          0.13970000       0.75000000       0.44330000
   190  H          0.36030000       0.25000000       0.94330000
   191  H          0.63970000       0.75000000       0.05670000
   192  H          0.86030000       0.25000000       0.55670000
   193  H          0.13230000       0.64620000       0.37760000
   194  H          0.36770000       0.35380000       0.87760000
   195  H          0.63230000       0.85380000       0.12240000
   196  H          0.86770000       0.14620000       0.62240000
   197  H          0.86770000       0.35380000       0.62240000
   198  H          0.63230000       0.64620000       0.12240000
   199  H          0.36770000       0.14620000       0.87760000
   200  H          0.13230000       0.85380000       0.37760000
   201  H          0.12040000       0.75000000       0.16870000
   202  H          0.37960000       0.25000000       0.66870000
   203  H          0.62040000       0.75000000       0.33130000
   204  H          0.87960000       0.25000000       0.83130000
   205  H          0.12240000       0.85380000       0.23490000
   206  H          0.37760000       0.14620000       0.73490000
   207  H          0.62240000       0.64620000       0.26510000
   208  H          0.87760000       0.35380000       0.76510000
   209  H          0.87760000       0.14620000       0.76510000
   210  H          0.62240000       0.85380000       0.26510000
   211  H          0.37760000       0.35380000       0.73490000
   212  H          0.12240000       0.64620000       0.23490000
   213  H          0.26870000       0.75000000       0.14980000
   214  H          0.23130000       0.25000000       0.64980000
   215  H          0.76870000       0.75000000       0.35020000
   216  H          0.73130000       0.25000000       0.85020000
   217  H          0.21410000       0.85380000       0.12210000
   218  H          0.28590000       0.14620000       0.62210000
   219  H          0.71410000       0.64620000       0.37790000
   220  H          0.78590000       0.35380000       0.87790000
   221  H          0.78590000       0.14620000       0.87790000
   222  H          0.71410000       0.85380000       0.37790000
   223  H          0.28590000       0.35380000       0.62210000
   224  H          0.21410000       0.64620000       0.12210000
   225  H          0.41580000       0.75000000       0.23190000
   226  H          0.08420000       0.25000000       0.73190000
   227  H          0.91580000       0.75000000       0.26810000
   228  H          0.58420000       0.25000000       0.76810000
   229  H          0.36230000       0.85380000       0.20180000
   230  H          0.13770000       0.14620000       0.70180000
   231  H          0.86230000       0.64620000       0.29820000
   232  H          0.63770000       0.35380000       0.79820000
   233  H          0.63770000       0.14620000       0.79820000
   234  H          0.86230000       0.85380000       0.29820000
   235  H          0.13770000       0.35380000       0.70180000
   236  H          0.36230000       0.64620000       0.20180000
   237  H          0.42030000       0.75000000       0.33800000
   238  H          0.07970000       0.25000000       0.83800000
   239  H          0.92030000       0.75000000       0.16200000
   240  H          0.57970000       0.25000000       0.66200000
   241  H          0.36940000       0.64620000       0.37320000
   242  H          0.13060000       0.35380000       0.87320000
   243  H          0.86940000       0.85380000       0.12680000
   244  H          0.63060000       0.14620000       0.62680000
   245  H          0.63060000       0.35380000       0.62680000
   246  H          0.86940000       0.64620000       0.12680000
   247  H          0.13060000       0.14620000       0.87320000
   248  H          0.36940000       0.85380000       0.37320000
   249  I          0.26757300       0.25000000       0.18345500
   250  I          0.23242700       0.75000000       0.68345500
   251  I          0.76757300       0.25000000       0.31654500
   252  I          0.73242700       0.75000000       0.81654500
