data_YUWKEI
_symmetry_space_group_name_H-M    'P1'
_symmetry_Int_Tables_number       1
loop_
_symmetry_equiv_pos_site_id
_symmetry_equiv_pos_as_xyz
1 x,y,z
_cell_length_a                   7.73492
_cell_length_b                   21.73196
_cell_length_c                   19.68765
_cell_angle_alpha                90.0
_cell_angle_beta                 93.35081
_cell_angle_gamma                90.0
loop_
_atom_site_label
_atom_site_type_symbol
_atom_site_fract_x
_atom_site_fract_y
_atom_site_fract_z
     1  I          0.62969200       0.24573100       0.28572100
     2  I          0.87030800       0.74573100       0.21427900
     3  I          0.37030800       0.75426900       0.71427900
     4  I          0.12969200       0.25426900       0.78572100
     5  I          0.62637200       0.51823100       0.36246100
     6  I          0.87362800       0.01823100       0.13753900
     7  I          0.37362800       0.48176900       0.63753900
     8  I          0.12637200       0.98176900       0.86246100
     9  I          0.81569300       0.56797100       0.13852100
    10  I          0.68430700       0.06797100       0.36147900
    11  I          0.18430700       0.43202900       0.86147900
    12  I          0.31569300       0.93202900       0.63852100
    13  I          0.73899200       0.29013100       0.09225100
    14  I          0.76100800       0.79013100       0.40774900
    15  I          0.26100800       0.70986900       0.90774900
    16  I          0.23899200       0.20986900       0.59225100
    17  F          0.53266190       0.40518800       0.20023800
    18  F          0.96733810       0.90518800       0.29976200
    19  F          0.46733810       0.59481200       0.79976200
    20  F          0.03266190       0.09481200       0.70023800
    21  F          0.97082000       0.37842800       0.37302800
    22  F          0.52918000       0.87842800       0.12697200
    23  F          0.02918000       0.62157200       0.62697200
    24  F          0.47082000       0.12157200       0.87302800
    25  F          0.21214190       0.40533800       0.28460800
    26  F          0.28785810       0.90533800       0.21539200
    27  F          0.78785810       0.59466200       0.71539200
    28  F          0.71214190       0.09466200       0.78460800
    29  F          0.11652000       0.43271800       0.15445800
    30  F          0.38348000       0.93271800       0.34554200
    31  F          0.88348000       0.56728200       0.84554200
    32  F          0.61652000       0.06728200       0.65445800
    33  F          0.37062000       0.25053700       0.40581900
    34  F          0.12938000       0.75053700       0.09418100
    35  F          0.62938000       0.74946300       0.59418100
    36  F          0.87062000       0.24946300       0.90581900
    37  F          0.25302000       0.34326800       0.48022800
    38  F          0.24698000       0.84326800       0.01977200
    39  F          0.74698000       0.65673200       0.51977200
    40  F          0.75302000       0.15673200       0.98022800
    41  F          0.36242000       0.45858800       0.46212800
    42  F          0.13758000       0.95858800       0.03787200
    43  F          0.63758000       0.54141200       0.53787200
    44  F          0.86242000       0.04141200       0.96212800
    45  F          0.72183000       0.55815800       0.98105900
    46  F          0.77817000       0.05815800       0.51894100
    47  F          0.27817000       0.44184200       0.01894100
    48  F          0.22183000       0.94184200       0.48105900
    49  F          0.65123000       0.46304900       0.89774200
    50  F          0.84877000       0.96304900       0.60225800
    51  F          0.34877000       0.53695100       0.10225800
    52  F          0.15123000       0.03695100       0.39774200
    53  F          0.65232000       0.34762800       0.94572200
    54  F          0.84768000       0.84762800       0.55427800
    55  F          0.34768000       0.65237200       0.05427800
    56  F          0.15232000       0.15237200       0.44572200
    57  C          0.70143000       0.40524110       0.22141130
    58  C          0.79857000       0.90524110       0.27858870
    59  C          0.29857000       0.59475890       0.77858870
    60  C          0.20143000       0.09475890       0.72141130
    61  C          0.74443000       0.39135110       0.28877130
    62  C          0.75557000       0.89135110       0.21122870
    63  C          0.25557000       0.60864890       0.71122870
    64  C          0.24443000       0.10864890       0.78877130
    65  C          0.91853000       0.39165120       0.30822130
    66  C          0.58147000       0.89165120       0.19177870
    67  C          0.08147000       0.60834880       0.69177870
    68  C          0.41853000       0.10834880       0.80822130
    69  C          0.04353000       0.40560120       0.26371140
    70  C          0.45647000       0.90560120       0.23628860
    71  C          0.95647000       0.59439880       0.73628860
    72  C          0.54353000       0.09439880       0.76371140
    73  C         -0.00667000       0.41947120       0.19732130
    74  C          0.50667000       0.91947120       0.30267870
    75  C          0.00667000       0.58052880       0.80267870
    76  C          0.49333000       0.08052880       0.69732130
    77  C          0.82133000       0.41933110       0.17409130
    78  C          0.67867000       0.91933110       0.32590870
    79  C          0.17867000       0.58066890       0.82590870
    80  C          0.32133000       0.08066890       0.67409130
    81  C          0.61143000       0.37821120       0.33892130
    82  C          0.88857000       0.87821120       0.16107870
    83  C          0.38857000       0.62178880       0.66107870
    84  C          0.11143000       0.12178880       0.83892130
    85  C          0.55103000       0.31826120       0.34773130
    86  C          0.94897000       0.81826120       0.15226870
    87  C          0.44897000       0.68173880       0.65226870
    88  C          0.05103000       0.18173880       0.84773130
    89  C          0.43173000       0.30763120       0.39570140
    90  C          0.06827000       0.80763120       0.10429860
    91  C          0.56827000       0.69236880       0.60429860
    92  C          0.93173000       0.19236880       0.89570140
    93  C          0.37093000       0.35451130       0.43464130
    94  C          0.12907000       0.85451130       0.06535870
    95  C          0.62907000       0.64548870       0.56535870
    96  C          0.87093000       0.14548870       0.93464130
    97  C          0.42913000       0.41352130       0.42500130
    98  C          0.07087000       0.91352130       0.07499870
    99  C          0.57087000       0.58647870       0.57499870
   100  C          0.92913000       0.08647870       0.92500130
   101  C          0.54903000       0.42656120       0.37779130
   102  C          0.95097000       0.92656120       0.12220870
   103  C          0.45097000       0.57343880       0.62220870
   104  C          0.04903000       0.07343880       0.87779130
   105  C          0.77183000       0.43140120       0.10113130
   106  C          0.72817000       0.93140120       0.39886870
   107  C          0.22817000       0.56859880       0.89886870
   108  C          0.27183000       0.06859880       0.60113130
   109  C          0.76794000       0.49155120       0.07576140
   110  C          0.73206000       0.99155120       0.42423860
   111  C          0.23206000       0.50844880       0.92423860
   112  C          0.26794000       0.00844880       0.57576140
   113  C          0.72744000       0.50100130       0.00710150
   114  C          0.77256000       0.00100130       0.49289850
   115  C          0.27256000       0.49899870      -0.00710150
   116  C          0.22744000      -0.00100130       0.50710150
   117  C          0.69054000       0.45274140       0.96386860
   118  C          0.80946000       0.95274140       0.53613140
   119  C          0.30946000       0.54725860       0.03613140
   120  C          0.19054000       0.04725860       0.46386860
   121  C          0.69234000       0.39379130       0.98923860
   122  C          0.80766000       0.89379130       0.51076140
   123  C          0.30766000       0.60620870       0.01076140
   124  C          0.19234000       0.10620870       0.48923860
   125  C          0.73403000       0.38198120       0.05708130
   126  C          0.76597000       0.88198120       0.44291870
   127  C          0.26597000       0.61801880       0.94291870
   128  C          0.23403000       0.11801880       0.55708130
   129  N          0.19163000       0.19333120       0.22698130
   130  N          0.30837000       0.69333120       0.27301870
   131  N          0.80837000       0.80666880       0.77301870
   132  N          0.69163000       0.30666880       0.72698130
   133  N          0.25373000       0.24836120       0.05329140
   134  N          0.24627000       0.74836120       0.44670860
   135  N          0.74627000       0.75163880       0.94670860
   136  N          0.75373000       0.25163880       0.55329140
   137  N          0.33373000       0.08631110       0.09775120
   138  N          0.16627000       0.58631110       0.40224880
   139  N          0.66627000       0.91368890       0.90224880
   140  N          0.83373000       0.41368890       0.59775120
   141  C          0.23173000       0.18271130       0.16379140
   142  C          0.26827000       0.68271130       0.33620860
   143  C          0.76827000       0.81728870       0.83620860
   144  C          0.73173000       0.31728870       0.66379140
   145  C          0.25803000       0.20309130       0.09908140
   146  C          0.24197000       0.70309130       0.40091860
   147  C          0.74197000       0.79690870       0.90091860
   148  C          0.75803000       0.29690870       0.59908140
   149  C          0.28853000       0.14262130       0.11554140
   150  C          0.21147000       0.64262130       0.38445860
   151  C          0.71147000       0.85737870       0.88445860
   152  C          0.78853000       0.35737870       0.61554140
   153  C          0.18035000       0.14334170       0.27531170
   154  C          0.31965000       0.64334170       0.22468830
   155  C          0.81965000       0.85665830       0.72468830
   156  C          0.68035000       0.35665830       0.77531170
   157  C          0.13164000       0.25459170       0.24526180
   158  C          0.36836000       0.75459170       0.25473820
   159  C          0.86836000       0.74540830       0.75473820
   160  C          0.63164000       0.24540830       0.74526180
   161  C          0.22854000       0.31162150       0.07452000
   162  C          0.27146000       0.81162150       0.42548000
   163  C          0.77146000       0.68837850       0.92548000
   164  C          0.72854000       0.18837850       0.57452000
   165  C          0.31965000       0.23839180       0.98673830
   166  C          0.18035000       0.73839180       0.51326170
   167  C          0.68035000       0.76160820       0.01326170
   168  C          0.81965000       0.26160820       0.48673830
   169  C          0.41104000       0.07658150       0.03308160
   170  C          0.08896000       0.57658150       0.46691840
   171  C          0.58896000       0.92341850       0.96691840
   172  C          0.91104000       0.42341850       0.53308160
   173  C          0.36994000       0.04051130       0.15069170
   174  C          0.13006000       0.54051130       0.34930830
   175  C          0.63006000       0.95948870       0.84930830
   176  C          0.86994000       0.45948870       0.65069170
   177  H          0.26350000       0.11110000       0.26500000
   178  H          0.23650000       0.61110000       0.23500000
   179  H          0.73650000       0.88890000       0.73500000
   180  H          0.76350000       0.38890000       0.76500000
   181  H          0.06290000       0.12620000       0.27210000
   182  H          0.43710000       0.62620000       0.22790000
   183  H          0.93710000       0.87380000       0.72790000
   184  H          0.56290000       0.37380000       0.77210000
   185  H          0.20690000       0.15890000       0.32150000
   186  H          0.29310000       0.65890000       0.17850000
   187  H          0.79310000       0.84110000       0.67850000
   188  H          0.70690000       0.34110000       0.82150000
   189  H          0.02040000       0.26310000       0.22070000
   190  H          0.47960000       0.76310000       0.27930000
   191  H          0.97960000       0.73690000       0.77930000
   192  H          0.52040000       0.23690000       0.72070000
   193  H          0.21700000       0.28540000       0.23300000
   194  H          0.28300000       0.78540000       0.26700000
   195  H          0.78300000       0.71460000       0.76700000
   196  H          0.71700000       0.21460000       0.73300000
   197  H          0.11730000       0.25630000       0.29440000
   198  H          0.38270000       0.75630000       0.20560000
   199  H          0.88270000       0.74370000       0.70560000
   200  H          0.61730000       0.24370000       0.79440000
   201  H          0.34130000       0.33180000       0.08200000
   202  H          0.15870000       0.83180000       0.41800000
   203  H          0.65870000       0.66820000       0.91800000
   204  H          0.84130000       0.16820000       0.58200000
   205  H          0.16790000       0.31210000       0.11690000
   206  H          0.33210000       0.81210000       0.38310000
   207  H          0.83210000       0.68790000       0.88310000
   208  H          0.66790000       0.18790000       0.61690000
   209  H          0.15920000       0.33360000       0.03900000
   210  H          0.34080000       0.83360000       0.46100000
   211  H          0.84080000       0.66640000       0.96100000
   212  H          0.65920000       0.16640000       0.53900000
   213  H          0.28710000       0.19710000       0.97060000
   214  H          0.21290000       0.69710000       0.52940000
   215  H          0.71290000       0.80290000       0.02940000
   216  H          0.78710000       0.30290000       0.47060000
   217  H          0.44600000       0.24220000       0.98980000
   218  H          0.05400000       0.74220000       0.51020000
   219  H          0.55400000       0.75780000       0.01020000
   220  H          0.94600000       0.25780000       0.48980000
   221  H          0.27000000       0.26910000       0.95480000
   222  H          0.23000000       0.76910000       0.54520000
   223  H          0.73000000       0.73090000       0.04520000
   224  H          0.77000000       0.23090000       0.45480000
   225  H          0.53640000       0.08280000       0.03890000
   226  H          0.96360000       0.58280000       0.46110000
   227  H          0.46360000       0.91720000       0.96110000
   228  H          0.03640000       0.41720000       0.53890000
   229  H          0.36150000       0.10590000      -0.00060000
   230  H          0.13850000       0.60590000       0.50060000
   231  H          0.63850000       0.89410000       0.00060000
   232  H          0.86150000       0.39410000       0.49940000
   233  H          0.38710000       0.03450000       0.01730000
   234  H          0.11290000       0.53450000       0.48270000
   235  H          0.61290000       0.96550000       0.98270000
   236  H          0.88710000       0.46550000       0.51730000
   237  H          0.27280000       0.03870000       0.18050000
   238  H          0.22720000       0.53870000       0.31950000
   239  H          0.72720000       0.96130000       0.81950000
   240  H          0.77280000       0.46130000       0.68050000
   241  H          0.47580000       0.05190000       0.17750000
   242  H          0.02420000       0.55190000       0.32250000
   243  H          0.52420000       0.94810000       0.82250000
   244  H          0.97580000       0.44810000       0.67750000
   245  H          0.38530000       0.00010000       0.12970000
   246  H          0.11470000       0.50010000       0.37030000
   247  H          0.61470000      -0.00010000       0.87030000
   248  H          0.88530000       0.49990000       0.62970000
   249  Br         0.74249400       0.15525100       0.16787200
   250  Br         0.75750600       0.65525100       0.33212800
   251  Br         0.25750600       0.84474900       0.83212800
   252  Br         0.24249400       0.34474900       0.66787200
