data_ZABLUM
_symmetry_space_group_name_H-M    'P1'
_symmetry_Int_Tables_number       1
loop_
_symmetry_equiv_pos_site_id
_symmetry_equiv_pos_as_xyz
1 x,y,z
_cell_length_a                   5.91735
_cell_length_b                   8.22127
_cell_length_c                   13.161111
_cell_angle_alpha                86.49601
_cell_angle_beta                 79.89301
_cell_angle_gamma                84.60701
loop_
_atom_site_label
_atom_site_type_symbol
_atom_site_fract_x
_atom_site_fract_y
_atom_site_fract_z
     1  I          0.29392200       0.20000200       0.09879200
     2  I          0.70607800       0.79999800       0.90120800
     3  F          0.20522000       0.24930160       0.34131100
     4  F          0.79478000       0.75069840       0.65868900
     5  F          0.88158000       0.16707170       0.49404100
     6  F          0.11842000       0.83292830       0.50595900
     7  F          0.52408000       0.90722840       0.25904100
     8  F          0.47592000       0.09277160       0.74095900
     9  F          0.85218000      -0.00410160       0.10454100
    10  F          0.14782000       0.00410160       0.89545900
    11  N          0.50207000       0.97918000       0.45504150
    12  N          0.49793000       0.02082000       0.54495850
    13  C          0.03734000       0.12803000       0.21775170
    14  C          0.96266000       0.87197000       0.78224830
    15  C          0.03634000       0.16603000       0.31943180
    16  C          0.96366000       0.83397000       0.68056820
    17  C          0.86706000       0.12303000       0.39855170
    18  C          0.13294000       0.87697000       0.60144830
    19  C          0.68636000       0.03613000       0.38176170
    20  C          0.31364000       0.96387000       0.61823830
    21  C          0.68886000      -0.00493000       0.27980170
    22  C          0.31114000       0.00493000       0.72019830
    23  C          0.85876000       0.04053000       0.19997170
    24  C          0.14124000       0.95947000       0.80002830
    25  N          0.31594000       0.68933000       0.05634180
    26  N          0.68406000       0.31067000       0.94365820
    27  N          0.48583000       0.48462000       0.45582150
    28  N          0.51417000       0.51538000       0.54417850
    29  C          0.17304000       0.65743000       0.12312000
    30  C          0.82696000       0.34257000       0.87688000
    31  C         -0.00286000       0.61593000       0.20930180
    32  C          0.00286000       0.38407000       0.79069820
    33  C          0.02134000       0.65053000       0.30945190
    34  C          0.97866000       0.34947000       0.69054810
    35  H          0.15120000       0.70250000       0.32040000
    36  H          0.84880000       0.29750000       0.67960000
    37  C          0.85684000       0.60913000       0.39189180
    38  C          0.14316000       0.39087000       0.60810820
    39  H          0.87250000       0.63240000       0.46000000
    40  H          0.12750000       0.36760000       0.54000000
    41  C          0.66584000       0.53233000       0.37513180
    42  C          0.33416000       0.46767000       0.62486820
    43  C          0.64134000       0.49833000       0.27521180
    44  C          0.35866000       0.50167000       0.72478820
    45  H          0.51100000       0.44660000       0.26450000
    46  H          0.48900000       0.55340000       0.73550000
    47  C          0.80634000       0.53983000       0.19165190
    48  C          0.19366000       0.46017000       0.80834810
    49  H          0.79030000       0.51700000       0.12350000
    50  H          0.20970000       0.48300000       0.87650000
