data_ZABVUX
_symmetry_space_group_name_H-M    'P1'
_symmetry_Int_Tables_number       1
loop_
_symmetry_equiv_pos_site_id
_symmetry_equiv_pos_as_xyz
1 x,y,z
_cell_length_a                   7.96858
_cell_length_b                   10.45061
_cell_length_c                   11.674612
_cell_angle_alpha                96.1555
_cell_angle_beta                 97.2995
_cell_angle_gamma                105.5545
loop_
_atom_site_label
_atom_site_type_symbol
_atom_site_fract_x
_atom_site_fract_y
_atom_site_fract_z
     1  I          0.28261400       0.81184200       0.43831200
     2  I          0.71738600       0.18815800       0.56168800
     3  I          0.71657400       0.44074300       0.29013300
     4  I          0.28342600       0.55925700       0.70986700
     5  F          0.55423000       0.63712000       0.44498190
     6  F          0.44577000       0.36288000       0.55501810
     7  F          0.11373000       0.70403000       0.16872000
     8  F          0.88627000       0.29597000       0.83128000
     9  F          0.42843000       0.40073000       0.06632000
    10  F          0.57157000       0.59927000       0.93368000
    11  F          0.18054000       0.52394000       0.01012000
    12  F          0.81946000       0.47606000      -0.01012000
    13  C          0.45935000       0.60823000       0.33733000
    14  C          0.54065000       0.39177000       0.66267000
    15  C          0.32995000       0.67253000       0.31223000
    16  C          0.67005000       0.32747000       0.68777000
    17  C          0.49965000       0.51804000       0.25673000
    18  C          0.50035000       0.48196000       0.74327000
    19  C          0.23855000       0.64264000       0.20064000
    20  C          0.76145000       0.35736000       0.79936000
    21  C          0.39925000       0.48974000       0.14814000
    22  C          0.60075000       0.51026000       0.85186000
    23  C          0.27145000       0.55184000       0.11884000
    24  C          0.72855000       0.44816000       0.88116000
    25  N          0.01345000       0.31633000       0.27113000
    26  N         -0.01345000       0.68367000       0.72887000
    27  C         -0.01245000       0.05844000       0.01753000
    28  C          0.01245000       0.94156000       0.98247000
    29  H          0.92912500       0.09603400       0.96216500
    30  H          0.07087500       0.90396600       0.03783500
    31  C          0.04345000       0.13464000       0.13573000
    32  C          0.95655000       0.86536000       0.86427000
    33  C         -0.02095000       0.24394000       0.16524000
    34  C          0.02095000       0.75606000       0.83476000
    35  H          0.90727500       0.26756800       0.10690100
    36  H          0.09272500       0.73243200       0.89309900
    37  C          0.15575000       0.10394000       0.22283000
    38  C          0.84425000       0.89606000       0.77717000
    39  H          0.20272300       0.03259100       0.20775900
    40  H          0.79727700       0.96740900       0.79224100
    41  C          0.12156000       0.28484000       0.35224000
    42  C          0.87844000       0.71516000       0.64776000
    43  H          0.14891900       0.33461000       0.42646200
    44  H          0.85108100       0.66539000       0.57353800
    45  C          0.19606000       0.17954000       0.33044000
    46  C          0.80394000       0.82046000       0.66956000
    47  H          0.27264600       0.16121000       0.38918800
    48  H          0.72735400       0.83879000       0.61081200
    49  N          0.27095000      -0.00616000       0.64583000
    50  N          0.72905000       0.00616000       0.35417000
    51  C          0.48536000       0.97874000       0.94364000
    52  C          0.51464000       0.02126000       0.05636000
    53  H          0.52772300       0.90692000       0.92055700
    54  H          0.47227700       0.09308000       0.07944300
    55  C          0.39466000       0.02954000       0.84984000
    56  C          0.60534000       0.97046000       0.15016000
    57  C          0.32856000       0.13934000       0.86505000
    58  C          0.67144000       0.86066000       0.13495000
    59  H          0.34841900       0.18946800       0.93874500
    60  H          0.65158100       0.81053200       0.06125500
    61  C          0.36166000       0.96274000       0.73624000
    62  C          0.63834000       0.03726000       0.26376000
    63  H          0.40691300       0.89018700       0.72272500
    64  H          0.59308700       0.10981300       0.27727500
    65  C          0.23386000       0.17514000       0.77275000
    66  C          0.76614000       0.82486000       0.22725000
    67  H          0.19040100       0.24905000       0.78298700
    68  H          0.80959900       0.75095000       0.21701300
    69  C          0.20547000       0.09804000       0.66435000
    70  C          0.79453000       0.90196000       0.33565000
    71  H          0.13829900       0.11931900       0.60200500
    72  H          0.86170100       0.88068100       0.39799500
