data_ZAJJEZ
_symmetry_space_group_name_H-M    'P1'
_symmetry_Int_Tables_number       1
loop_
_symmetry_equiv_pos_site_id
_symmetry_equiv_pos_as_xyz
1 x,y,z
_cell_length_a                   11.4374
_cell_length_b                   5.46927
_cell_length_c                   18.3205
_cell_angle_alpha                90.0
_cell_angle_beta                 91.9001
_cell_angle_gamma                90.0
loop_
_atom_site_label
_atom_site_type_symbol
_atom_site_fract_x
_atom_site_fract_y
_atom_site_fract_z
     1  N          0.27473000       0.63603000       0.09212000
     2  N          0.72527000       0.13603000       0.40788000
     3  N          0.72527000       0.36397000       0.90788000
     4  N          0.27473000       0.86397000       0.59212000
     5  C          0.17274000       0.58742000       0.05612000
     6  C          0.82726000       0.08742000       0.44388000
     7  C          0.82726000       0.41258000       0.94388000
     8  C          0.17274000       0.91258000       0.55612000
     9  N          0.08244000       0.73301000       0.06703000
    10  N          0.91756000       0.23301000       0.43297000
    11  N          0.91756000       0.26699000       0.93297000
    12  N          0.08244000       0.76699000       0.56703000
    13  N          0.15613000       0.40103000       0.00842000
    14  N          0.84387000       0.90103000       0.49158000
    15  N          0.84387000       0.59897000       0.99158000
    16  N          0.15613000       0.09897000       0.50842000
    17  C          0.24825000       0.26299000      -0.00283000
    18  C          0.75175000       0.76299000       0.50283000
    19  C          0.75175000       0.73701000       0.00283000
    20  C          0.24825000       0.23701000       0.49717000
    21  C          0.35585000       0.29929000       0.03023000
    22  C          0.64415000       0.79929000       0.46977000
    23  C          0.64415000       0.70071000       0.96977000
    24  C          0.35585000       0.20071000       0.53023000
    25  C          0.36404000       0.48959000       0.07803000
    26  C          0.63596000      -0.01041000       0.42197000
    27  C          0.63596000       0.51041000       0.92197000
    28  C          0.36404000       0.01041000       0.57803000
    29  H          0.09154100       0.85889000       0.10152800
    30  H          0.90845900       0.35889000       0.39847200
    31  H          0.90845900       0.14111000       0.89847200
    32  H          0.09154100       0.64111000       0.60152800
    33  H          0.01644400       0.71130600       0.04242600
    34  H          0.98355600       0.21130600       0.45757400
    35  H          0.98355600       0.28869400       0.95757400
    36  H          0.01644400       0.78869400       0.54242600
    37  H          0.23503900       0.11900100       0.96417300
    38  H          0.76496100       0.61900100       0.53582700
    39  H          0.76496100       0.88099900       0.03582700
    40  H          0.23503900       0.38099900       0.46417300
    41  H          0.42725300       0.20388000       0.01663300
    42  H          0.57274700       0.70388000       0.48336700
    43  H          0.57274700       0.79612000       0.98336700
    44  H          0.42725300       0.29612000       0.51663300
    45  H          0.43243900       0.52601700       0.10292300
    46  H          0.56756100       0.02601700       0.39707700
    47  H          0.56756100       0.47398300       0.89707700
    48  H          0.43243900       0.97398300       0.60292300
    49  C          0.25813000       0.31478000       0.26432000
    50  C          0.74187000       0.81478000       0.23568000
    51  C          0.74187000       0.68522000       0.73568000
    52  C          0.25813000       0.18522000       0.76432000
    53  C          0.16883000       0.46088000       0.28802000
    54  C          0.83117000       0.96088000       0.21198000
    55  C          0.83117000       0.53912000       0.71198000
    56  C          0.16883000       0.03912000       0.78802000
    57  C          0.23023000       0.11928000       0.21022000
    58  C          0.76977000       0.61928000       0.28978000
    59  C          0.76977000       0.88072000       0.78978000
    60  C          0.23023000       0.38072000       0.71022000
    61  O          0.13402000       0.09557000       0.18152000
    62  O          0.86598000       0.59557000       0.31848000
    63  O          0.86598000       0.90443000       0.81848000
    64  O          0.13402000       0.40443000       0.68152000
    65  O          0.31872000      -0.01956000       0.19402000
    66  O          0.68128000       0.48044000       0.30598000
    67  O          0.68128000       0.01956000       0.80598000
    68  O          0.31872000       0.51956000       0.69402000
    69  C          0.19033000       0.65138000       0.33702000
    70  C          0.80967000       0.15138000       0.16298000
    71  C          0.80967000       0.34862000       0.66298000
    72  C          0.19033000       0.84862000       0.83702000
    73  N          0.10074000       0.79321100       0.36033000
    74  N          0.89926000       0.29321100       0.13967000
    75  N          0.89926000       0.20678900       0.63967000
    76  N          0.10074000       0.70678900       0.86033000
    77  C          0.30594000       0.69119000       0.36102000
    78  C          0.69406000       0.19119000       0.13898000
    79  C          0.69406000       0.30881000       0.63898000
    80  C          0.30594000       0.80881000       0.86102000
    81  C          0.39424000       0.54739000       0.33722000
    82  C          0.60576000       0.04739000       0.16278000
    83  C          0.60576000       0.45261000       0.66278000
    84  C          0.39424000       0.95261000       0.83722000
    85  C          0.37324000       0.35629000       0.28912000
    86  C          0.62676000       0.85629000       0.21088000
    87  C          0.62676000       0.64371000       0.71088000
    88  C          0.37324000       0.14371000       0.78912000
    89  H          0.29414300       0.85690000       0.16222900
    90  H          0.70585700       0.35690000       0.33777100
    91  H          0.70585700       0.14310000       0.83777100
    92  H          0.29414300       0.64310000       0.66222900
    93  H          0.09343100       0.42106700       0.27041800
    94  H          0.90656900       0.92106700       0.22958200
    95  H          0.90656900       0.57893300       0.72958200
    96  H          0.09343100       0.07893300       0.77041800
    97  H          0.02934500       0.76329600       0.34512700
    98  H          0.97065500       0.26329600       0.15487300
    99  H          0.97065500       0.23670400       0.65487300
   100  H          0.02934500       0.73670400       0.84512700
   101  H          0.11724600       0.90711000       0.39023100
   102  H          0.88275400       0.40711000       0.10976900
   103  H          0.88275400       0.09289000       0.60976900
   104  H          0.11724600       0.59289000       0.89023100
   105  H          0.32193500       0.83498700       0.39162300
   106  H          0.67806500       0.33498700       0.10837700
   107  H          0.67806500       0.16501300       0.60837700
   108  H          0.32193500       0.66501300       0.89162300
   109  H          0.47224200       0.57569300       0.35432600
   110  H          0.52775800       0.07569300       0.14567400
   111  H          0.52775800       0.42430700       0.64567400
   112  H          0.47224200       0.92430700       0.85432600
   113  H          0.43863600       0.26447800       0.27182100
   114  H          0.56136400       0.76447800       0.22817900
   115  H          0.56136400       0.73552200       0.72817900
   116  H          0.43863600       0.23552200       0.77182100
