data_ZAJJAV
_symmetry_space_group_name_H-M    'P1'
_symmetry_Int_Tables_number       1
loop_
_symmetry_equiv_pos_site_id
_symmetry_equiv_pos_as_xyz
1 x,y,z
_cell_length_a                   12.7736
_cell_length_b                   4.74925
_cell_length_c                   15.8557
_cell_angle_alpha                90.0
_cell_angle_beta                 110.252
_cell_angle_gamma                90.0
loop_
_atom_site_label
_atom_site_type_symbol
_atom_site_fract_x
_atom_site_fract_y
_atom_site_fract_z
     1  N          0.14574000       0.05281200       0.26354000
     2  N          0.64574000       0.94718800       0.26354000
     3  C          0.04895000       0.10741500       0.19684000
     4  C          0.54895000       0.89258500       0.19684000
     5  N          0.95995000       0.96311500       0.19534000
     6  N          0.45995000       0.03688500       0.19534000
     7  N          0.03774000       0.29771300       0.13224000
     8  N          0.53774000       0.70228700       0.13224000
     9  C          0.12887000       0.44592200       0.13646000
    10  C          0.62887000       0.55407800       0.13646000
    11  C          0.22956000       0.40561600       0.20036000
    12  C          0.72956000       0.59438400       0.20036000
    13  C          0.23486000       0.20331700       0.26485000
    14  C          0.73486000       0.79668300       0.26485000
    15  H          0.91550000       0.07540000       0.21430000
    16  H          0.41550000       0.92460000       0.21430000
    17  H          0.97980000       0.81600000       0.23150000
    18  H          0.47980000       0.18400000       0.23150000
    19  H          0.11984300       0.54512000       0.09723800
    20  H          0.61984300       0.45488000       0.09723800
    21  H          0.30077400       0.50818000       0.20304900
    22  H          0.80077400       0.49182000       0.20304900
    23  H          0.30206100       0.16714000       0.31294700
    24  H          0.80206100       0.83286000       0.31294700
    25  C          0.66906000       0.33041700       0.90155000
    26  C          0.16906000       0.66958300       0.90155000
    27  C          0.56426000       0.20991700       0.88655000
    28  C          0.06426000       0.79008300       0.88655000
    29  N          0.54558000       0.02812200       0.94426000
    30  N          0.04558000      -0.02812200       0.94426000
    31  C          0.47657000       0.28612100       0.80835000
    32  C          0.97657000       0.71387900       0.80835000
    33  C          0.49039000       0.47002200       0.74926000
    34  C         -0.00961000       0.52997800       0.74926000
    35  C          0.59209000       0.59502200       0.76336000
    36  C          0.09209000       0.40497800       0.76336000
    37  C          0.68078000       0.52072200       0.83976000
    38  C          0.18078000       0.47927800       0.83976000
    39  C          0.76526000       0.26621700       0.98295000
    40  C          0.26526000       0.73378300       0.98295000
    41  O          0.76194000       0.10611300       0.04213000
    42  O          0.26194000       0.89388700       0.04213000
    43  O          0.85814000       0.38801300       0.98513000
    44  O          0.35814000       0.61198700       0.98513000
    45  H          0.90844000       0.34471300       0.03173000
    46  H          0.40844000       0.65528700       0.03173000
    47  H          0.39897000       0.22916000       0.80615100
    48  H          0.89897000       0.77084000       0.80615100
    49  H          0.41711000       0.48031000       0.69449300
    50  H          0.91711000       0.51969000       0.69449300
    51  H          0.61612000       0.77829000       0.73010000
    52  H          0.11612000       0.22171000       0.73010000
    53  H          0.74946500       0.57116000       0.84314800
    54  H          0.24946500       0.42884000       0.84314800
    55  H          0.48985500       0.94513000       0.92824200
    56  H         -0.01014500       0.05487000       0.92824200
    57  H          0.59006600      -0.02882000       0.98155500
    58  H          0.09006600       0.02882000       0.98155500
    59  C          0.62415000       0.68921500       0.47124000
    60  C          0.12415000       0.31078500       0.47124000
    61  N          0.42885000       0.78291800       0.44875000
    62  N          0.92885000       0.21708200       0.44875000
    63  C          0.54055000       0.83151500       0.49194000
    64  C          0.04055000       0.16848500       0.49194000
    65  C          0.57217000       0.03461900       0.56005000
    66  C          0.07217000       0.96538100       0.56005000
    67  C          0.68236000       0.08631700       0.60685000
    68  C          0.18236000       0.91368300       0.60685000
    69  C          0.76526000       0.94431700       0.58775000
    70  C          0.26526000       0.05568300       0.58775000
    71  C          0.73595000       0.75051600       0.52075000
    72  C          0.23595000       0.24948400       0.52075000
    73  C          0.59665000       0.47521600       0.39904000
    74  C          0.09665000       0.52478400       0.39904000
    75  O          0.50084000       0.42191100       0.34933000
    76  O          0.00084000       0.57808900       0.34933000
    77  O          0.68353000       0.34671000       0.39103000
    78  O          0.18353000       0.65329000       0.39103000
    79  H          0.66263000       0.23151000       0.35003000
    80  H          0.16263000       0.76849000       0.35003000
    81  H          0.52425400       0.09812000       0.57953900
    82  H          0.02425400       0.90188000       0.57953900
    83  H          0.69225900       0.21816000       0.64844800
    84  H          0.19225900       0.78184000       0.64844800
    85  H          0.84386800      -0.02081000       0.61155000
    86  H          0.34386800       0.02081000       0.61155000
    87  H          0.78225300       0.64613000       0.50633700
    88  H          0.28225300       0.35387000       0.50633700
    89  H          0.37294800       0.82413000       0.48243700
    90  H          0.87294800       0.17587000       0.48243700
    91  H          0.41266900       0.63817000       0.41545600
    92  H          0.91266900       0.36183000       0.41545600
