data_ZAKKAB
_symmetry_space_group_name_H-M    'P1'
_symmetry_Int_Tables_number       1
loop_
_symmetry_equiv_pos_site_id
_symmetry_equiv_pos_as_xyz
1 x,y,z
_cell_length_a                   18.69547
_cell_length_b                   11.21064
_cell_length_c                   12.89955
_cell_angle_alpha                90.0
_cell_angle_beta                 109.3008
_cell_angle_gamma                90.0
loop_
_atom_site_label
_atom_site_type_symbol
_atom_site_fract_x
_atom_site_fract_y
_atom_site_fract_z
     1  S          0.69727400       0.64999600       0.96189600
     2  S          0.30272600       0.14999600       0.53810400
     3  S          0.30272600       0.35000400       0.03810400
     4  S          0.69727400       0.85000400       0.46189600
     5  S          0.67321400       0.36477700       0.05890700
     6  S          0.32678600       0.86477700       0.44109300
     7  S          0.32678600       0.63522300       0.94109300
     8  S          0.67321400       0.13522300       0.55890700
     9  S          0.54097400       0.61850600       0.81490600
    10  S          0.45902600       0.11850600       0.68509400
    11  S          0.45902600       0.38149400       0.18509400
    12  S          0.54097400       0.88149400       0.31490600
    13  S          0.52008400       0.38037700       0.89579700
    14  S          0.47991600       0.88037700       0.60420300
    15  S          0.47991600       0.61962300       0.10420300
    16  S          0.52008400       0.11962300       0.39579700
    17  S          0.36507400       0.61678600       0.65539600
    18  S          0.63492600       0.11678600       0.84460400
    19  S          0.63492600       0.38321400       0.34460400
    20  S          0.36507400       0.88321400       0.15539600
    21  S          0.34661400       0.37791600       0.73610600
    22  S          0.65338600       0.87791600       0.76389400
    23  S          0.65338600       0.62208400       0.26389400
    24  S          0.34661400       0.12208400       0.23610600
    25  S          0.20438400       0.64811600       0.52229600
    26  S          0.79561600       0.14811600       0.97770400
    27  S          0.79561600       0.35188400       0.47770400
    28  S          0.20438400       0.85188400       0.02229600
    29  S          0.18150400       0.36351700       0.61742700
    30  S          0.81849600       0.86351700       0.88257300
    31  S          0.81849600       0.63648300       0.38257300
    32  S          0.18150400       0.13648300       0.11742700
    33  C          0.76207150       0.56713000       0.07352000
    34  C          0.23792850       0.06713000       0.42648000
    35  C          0.23792850       0.43287000       0.92648000
    36  C          0.76207150       0.93287000       0.57352000
    37  H          0.81308500       0.59535900       0.08451800
    38  H          0.18691500       0.09535900       0.41548200
    39  H          0.18691500       0.40464100       0.91548200
    40  H          0.81308500       0.90464100       0.58451800
    41  H          0.75053600       0.58411100       0.13996800
    42  H          0.24946400       0.08411100       0.36003200
    43  H          0.24946400       0.41588900       0.86003200
    44  H          0.75053600       0.91588900       0.63996800
    45  C          0.76056150       0.43373000       0.05743000
    46  C          0.23943850       0.93373000       0.44257000
    47  C          0.23943850       0.56627000       0.94257000
    48  C          0.76056150       0.06627000       0.55743000
    49  H          0.80263300       0.39850200       0.11511500
    50  H          0.19736700       0.89850200       0.38488500
    51  H          0.19736700       0.60149800       0.88488500
    52  H          0.80263300       0.10149800       0.61511500
    53  H          0.76766000       0.41630500       0.98779700
    54  H          0.23234000       0.91630500       0.51220300
    55  H          0.23234000       0.58369500       0.01220300
    56  H          0.76766000       0.08369500       0.48779700
    57  C          0.61741130       0.55872000       0.92052000
    58  C          0.38258870       0.05872000       0.57948000
    59  C          0.38258870       0.44128000       0.07948000
    60  C          0.61741130       0.94128000       0.42052000
    61  C          0.60806140       0.44892000       0.95752000
    62  C          0.39193860       0.94892000       0.54248000
    63  C          0.39193860       0.55108000       0.04248000
    64  C          0.60806140       0.05108000       0.45752000
    65  C          0.48013140       0.49892000       0.80972000
    66  C          0.51986860      -0.00108000       0.69028000
    67  C          0.51986860       0.50108000       0.19028000
    68  C          0.48013140       0.00108000       0.30972000
    69  C          0.40613140       0.49832000       0.74132000
    70  C          0.59386860      -0.00168000       0.75868000
    71  C          0.59386860       0.50168000       0.25868000
    72  C          0.40613140       0.00168000       0.24132000
    73  C          0.27321140       0.55602000       0.60942000
    74  C          0.72678860       0.05602000       0.89058000
    75  C          0.72678860       0.44398000       0.39058000
    76  C          0.27321140       0.94398000       0.10942000
    77  C          0.26511130       0.44552000       0.64622000
    78  C          0.73488870       0.94552000       0.85378000
    79  C          0.73488870       0.55448000       0.35378000
    80  C          0.26511130       0.05448000       0.14622000
    81  C          0.11879190       0.56584000       0.50084000
    82  C          0.88120810       0.06584000      -0.00084000
    83  C          0.88120810       0.43416000       0.49916000
    84  C          0.11879190       0.93416000       0.00084000
    85  H          0.07856400       0.62354100       0.49190400
    86  H          0.92143600       0.12354100       0.00809600
    87  H          0.92143600       0.37645900       0.50809600
    88  H          0.07856400       0.87645900      -0.00809600
    89  H          0.10779400       0.52478500       0.43102700
    90  H          0.89220600       0.02478500       0.06897300
    91  H          0.89220600       0.47521500       0.56897300
    92  H          0.10779400       0.97521500       0.93102700
    93  C          0.11264180       0.48083000       0.57804000
    94  C          0.88735820       0.98083000       0.92196000
    95  C          0.88735820       0.51917000       0.42196000
    96  C          0.11264180       0.01917000       0.07804000
    97  H          0.06302400       0.44408800       0.54884300
    98  H          0.93697600       0.94408800       0.95115700
    99  H          0.93697600       0.55591200       0.45115700
   100  H          0.06302400       0.05591200       0.04884300
   101  H          0.11402100       0.52339200       0.64408900
   102  H          0.88597900       0.02339200       0.85591100
   103  H          0.88597900       0.47660800       0.35591100
   104  H          0.11402100       0.97660800       0.14408900
   105  S          0.26592400       0.64995600       0.23857600
   106  S          0.73407600       0.14995600       0.26142400
   107  S          0.73407600       0.35004400       0.76142400
   108  S          0.26592400       0.85004400       0.73857600
   109  S          0.23764400       0.36788700       0.33803700
   110  S          0.76235600       0.86788700       0.16196300
   111  S          0.76235600       0.63211300       0.66196300
   112  S          0.23764400       0.13211300       0.83803700
   113  S          0.42296400       0.61718600       0.37974600
   114  S          0.57703600       0.11718600       0.12025400
   115  S          0.57703600       0.38281400       0.62025400
   116  S          0.42296400       0.88281400       0.87974600
   117  S          0.40167400       0.38309600       0.46326600
   118  S          0.59832600       0.88309600       0.03673400
   119  S          0.59832600       0.61690400       0.53673400
   120  S          0.40167400       0.11690400       0.96326600
   121  C          0.17796160       0.57103000       0.21693000
   122  C          0.82203840       0.07103000       0.28307000
   123  C          0.82203840       0.42897000       0.78307000
   124  C          0.17796160       0.92897000       0.71693000
   125  H          0.15901100       0.59096300       0.27620600
   126  H          0.84098900       0.09096300       0.22379400
   127  H          0.84098900       0.40903700       0.72379400
   128  H          0.15901100       0.90903700       0.77620600
   129  H          0.14121000       0.59945300       0.14912600
   130  H          0.85879000       0.09945300       0.35087400
   131  H          0.85879000       0.40054700       0.85087400
   132  H          0.14121000       0.90054700       0.64912600
   133  C          0.18261150       0.43793000       0.21062000
   134  C          0.81738850       0.93793000       0.28938000
   135  C          0.81738850       0.56207000       0.78938000
   136  C          0.18261150       0.06207000       0.71062000
   137  H          0.20471300       0.41759300       0.15463500
   138  H          0.79528700       0.91759300       0.34536500
   139  H          0.79528700       0.58240700       0.84536500
   140  H          0.20471300       0.08240700       0.65463500
   141  H          0.13165500       0.40550600       0.18773000
   142  H          0.86834500       0.90550600       0.31227000
   143  H          0.86834500       0.59449400       0.81227000
   144  H          0.13165500       0.09449400       0.68773000
   145  C          0.33130140       0.55882000       0.33212000
   146  C          0.66869860       0.05882000       0.16788000
   147  C          0.66869860       0.44118000       0.66788000
   148  C          0.33130140       0.94118000       0.83212000
   149  C          0.32125140       0.44962000       0.37062000
   150  C          0.67874860       0.94962000       0.12938000
   151  C          0.67874860       0.55038000       0.62938000
   152  C          0.32125140       0.05038000       0.87062000
   153  C          0.46225130       0.49992000       0.46612000
   154  C          0.53774870      -0.00008000       0.03388000
   155  C          0.53774870       0.50008000       0.53388000
   156  C          0.46225130       0.00008000       0.96612000
   157  S          0.98421600       0.29742600       0.24355600
   158  S          0.01578400       0.79742600       0.25644400
   159  S          0.01578400       0.70257400       0.75644400
   160  S          0.98421600       0.20257400       0.74355600
   161  O          0.07649120       0.03152000       0.45649170
   162  O          0.92350880       0.53152000       0.04350830
   163  O          0.92350880       0.96848000       0.54350830
   164  O          0.07649120       0.46848000       0.95649170
   165  H          0.05294400       0.97265500       0.42556600
   166  H          0.94705600       0.47265500       0.07443400
   167  H          0.94705600       0.02734500       0.57443400
   168  H          0.05294400       0.52734500       0.92556600
   169  O         -0.00752000       0.31123000       0.13682000
   170  O          0.00752000       0.81123000       0.36318000
   171  O          0.00752000       0.68877000       0.86318000
   172  O         -0.00752000       0.18877000       0.63682000
   173  O          0.02452000       0.38713000       0.31653000
   174  O          0.97548000       0.88713000       0.18347000
   175  O          0.97548000       0.61287000       0.68347000
   176  O          0.02452000       0.11287000       0.81653000
   177  O          0.90771860       0.28693000       0.23753000
   178  O          0.09228140       0.78693000       0.26247000
   179  O          0.09228140       0.71307000       0.76247000
   180  O          0.90771860       0.21307000       0.73753000
   181  C          0.03435180       0.13593000       0.41313000
   182  C          0.96564820       0.63593000       0.08687000
   183  C          0.96564820       0.86407000       0.58687000
   184  C          0.03435180       0.36407000       0.91313000
   185  H          0.05795700       0.20367600       0.45826000
   186  H          0.94204300       0.70367600       0.04174000
   187  H          0.94204300       0.79632400       0.54174000
   188  H          0.05795700       0.29632400       0.95826000
   189  H          0.98357200       0.12754300       0.41667200
   190  H          0.01642800       0.62754300       0.08332800
   191  H          0.01642800       0.87245700       0.58332800
   192  H          0.98357200       0.37245700       0.91667200
   193  C          0.02922180       0.16023000       0.29622000
   194  C          0.97077820       0.66023000       0.20378000
   195  C          0.97077820       0.83977000       0.70378000
   196  C          0.02922180       0.33977000       0.79622000
   197  H          0.00145700       0.09565200       0.25027400
   198  H         -0.00145700       0.59565200       0.24972600
   199  H         -0.00145700       0.90434800       0.74972600
   200  H          0.00145700       0.40434800       0.75027400
   201  H          0.07999000       0.16059700       0.29170900
   202  H          0.92001000       0.66059700       0.20829100
   203  H          0.92001000       0.83940300       0.70829100
   204  H          0.07999000       0.33940300       0.79170900
