data_ZALDAV
_symmetry_space_group_name_H-M    'P1'
_symmetry_Int_Tables_number       1
loop_
_symmetry_equiv_pos_site_id
_symmetry_equiv_pos_as_xyz
1 x,y,z
_cell_length_a                   8.91936
_cell_length_b                   10.30437
_cell_length_c                   10.39697
_cell_angle_alpha                68.0853
_cell_angle_beta                 74.3023
_cell_angle_gamma                67.5603
loop_
_atom_site_label
_atom_site_type_symbol
_atom_site_fract_x
_atom_site_fract_y
_atom_site_fract_z
     1  F          0.86978190       0.22397190       0.65563170
     2  F          0.13021810       0.77602810       0.34436830
     3  N          0.76922000       0.98962000       0.62344180
     4  N          0.23078000       0.01038000       0.37655820
     5  H          0.77060000       0.96220000       0.71210000
     6  H          0.22940000       0.03780000       0.28790000
     7  O          0.49663000       0.36222000       0.71552000
     8  O          0.50337000       0.63778000       0.28448000
     9  F          0.79022000       0.22329180       0.15035150
    10  F          0.20978000       0.77670820       0.84964850
    11  C          0.63323000       0.73523000       0.53582000
    12  C          0.36677000       0.26477000       0.46418000
    13  H          0.62690000       0.78880000       0.44190000
    14  H          0.37310000       0.21120000       0.55810000
    15  O          0.57294000       0.32203000       0.90992000
    16  O          0.42706000       0.67797000       0.09008000
    17  C          0.78553000       0.10853000       0.39652000
    18  C          0.21447000       0.89147000       0.60348000
    19  C          0.68623000       0.78472000       0.61792000
    20  C          0.31377000       0.21528000       0.38208000
    21  F          0.88232000       0.43911190       0.16662180
    22  F          0.11768000       0.56088810       0.83337820
    23  C          0.85683000       0.32893000       0.28293000
    24  C          0.14317000       0.67107000       0.71707000
    25  C          0.81133000       0.22083000       0.27462000
    26  C          0.18867000       0.77917000       0.72538000
    27  N          0.73902000       0.98892000       0.41587180
    28  N          0.26098000       0.01108000       0.58412820
    29  C          0.73083000       0.92042000       0.55242000
    30  C          0.26917000       0.07958000       0.44758000
    31  C          0.59003000       0.60893000       0.59103000
    32  C          0.40997000       0.39107000       0.40897000
    33  H          0.55390000       0.57700000       0.53570000
    34  H          0.44610000       0.42300000       0.46430000
    35  C          0.60123000       0.53003000       0.72982000
    36  C          0.39877000       0.46997000       0.27018000
    37  N          0.55233000       0.39583000       0.78933000
    38  N          0.44767000       0.60417000       0.21067000
    39  F          0.92162000       0.43930190       0.41392000
    40  F          0.07838000       0.56069810       0.58608000
    41  C          0.87653000       0.33013000       0.41073000
    42  C          0.12347000       0.66987000       0.58927000
    43  C          0.85073000       0.22183000       0.53253000
    44  C          0.14927000       0.77817000       0.46747000
    45  C          0.80493000       0.11123000       0.52492000
    46  C          0.19507000       0.88877000       0.47508000
    47  C          0.65493000       0.57453000       0.81432000
    48  C          0.34507000       0.42547000       0.18568000
    49  H          0.66270000       0.51890000       0.90760000
    50  H          0.33730000       0.48110000       0.09240000
    51  C          0.69663000       0.70223000       0.75862000
    52  C          0.30337000       0.29777000       0.24138000
    53  H          0.73190000       0.73380000       0.81480000
    54  H          0.26810000       0.26620000       0.18520000
    55  O          0.79003000       0.88892000       0.90260180
    56  O          0.20997000       0.11108000       0.09739820
    57  S          0.81665800       0.93833800       0.01112600
    58  S          0.18334200       0.06166200      -0.01112600
    59  C          0.91764000       0.77374000       0.13343000
    60  C          0.08236000       0.22626000       0.86657000
    61  H          0.93870000       0.79730000       0.20640000
    62  H          0.06130000       0.20270000       0.79360000
    63  H          0.01960000       0.72340000       0.08640000
    64  H          0.98040000       0.27660000       0.91360000
    65  H          0.84930000       0.71120000       0.17330000
    66  H          0.15070000       0.28880000       0.82670000
    67  C          0.62583000       0.97933000       0.12073000
    68  C          0.37417000       0.02067000       0.87927000
    69  H          0.63680000       0.01170000       0.19210000
    70  H          0.36320000       0.98830000       0.80790000
    71  H          0.59220000       0.89260000       0.16380000
    72  H          0.40780000       0.10740000       0.83620000
    73  H          0.54490000       0.05580000       0.06570000
    74  H          0.45510000       0.94420000       0.93430000
