data_ZANQOX
_symmetry_space_group_name_H-M    'P1'
_symmetry_Int_Tables_number       1
loop_
_symmetry_equiv_pos_site_id
_symmetry_equiv_pos_as_xyz
1 x,y,z
_cell_length_a                   5.22039
_cell_length_b                   9.718016
_cell_length_c                   11.3432
_cell_angle_alpha                97.5537
_cell_angle_beta                 100.6077
_cell_angle_gamma                101.3517
loop_
_atom_site_label
_atom_site_type_symbol
_atom_site_fract_x
_atom_site_fract_y
_atom_site_fract_z
     1  I          0.55336200       0.57940200       0.72357200
     2  I          0.44663800       0.42059800       0.27642800
     3  F          0.26483000       0.80644140       0.72340120
     4  F          0.73517000       0.19355860       0.27659880
     5  F          0.14382000       0.65755140       0.55224120
     6  F          0.85618000       0.34244860       0.44775880
     7  F          0.76752000       0.89180120       0.66633100
     8  F          0.23248000       0.10819880       0.33366900
     9  F          0.41222000       0.04500110       0.63945100
    10  F          0.58778000       0.95499890       0.36054900
    11  F          0.16972000       0.90312120       0.47491100
    12  F          0.83028000       0.09687880       0.52508900
    13  F          0.60222000       0.75700120       0.48916100
    14  F          0.39778000       0.24299880       0.51083900
    15  C          0.35714000       0.72862000       0.63960170
    16  C          0.64286000       0.27138000       0.36039830
    17  C          0.54033000       0.83257180       0.58263160
    18  C          0.45967000       0.16742820       0.41736840
    19  C          0.42093000       0.95632180       0.53950150
    20  C          0.57907000       0.04367820       0.46049850
    21  N          0.77843000       0.38414170       0.83411150
    22  N          0.22157000       0.61585830       0.16588850
    23  C          0.73644000       0.35412000       0.94172000
    24  C          0.26356000       0.64588000       0.05828000
    25  C          0.84034000       0.25352000      -0.00257820
    26  C          0.15966000       0.74648000       0.00257820
    27  C         -0.00356000       0.17773190       0.94118170
    28  C          0.00356000       0.82226810       0.05881830
    29  C          0.10894000       0.06452000      -0.00208000
    30  C          0.89106000       0.93548000       0.00208000
    31  C          0.92984000       0.31192000       0.78040180
    32  C          0.07016000       0.68808000       0.21959820
    33  C          0.04084000       0.20932000       0.82965180
    34  C          0.95916000       0.79068000       0.17034820
    35  H          0.80060000       0.23630000       0.07330000
    36  H          0.19940000       0.76370000       0.92670000
    37  H          0.96050000       0.33420000       0.70320000
    38  H          0.03950000       0.66580000       0.29680000
    39  H          0.62350000       0.40330000       0.97920000
    40  H          0.37650000       0.59670000       0.02080000
    41  H          0.14350000       0.16030000       0.78920000
    42  H          0.85650000       0.83970000       0.21080000
    43  H          0.20350000       0.10130000       0.07720000
    44  H          0.79650000       0.89870000       0.92280000
    45  H          0.24350000       0.03930000       0.95520000
    46  H          0.75650000       0.96070000       0.04480000
