data_ZANQIR
_symmetry_space_group_name_H-M    'P1'
_symmetry_Int_Tables_number       1
loop_
_symmetry_equiv_pos_site_id
_symmetry_equiv_pos_as_xyz
1 x,y,z
_cell_length_a                   10.70045
_cell_length_b                   7.48714
_cell_length_c                   11.11616
_cell_angle_alpha                90.0
_cell_angle_beta                 100.5722
_cell_angle_gamma                90.0
loop_
_atom_site_label
_atom_site_type_symbol
_atom_site_fract_x
_atom_site_fract_y
_atom_site_fract_z
     1  I          0.31881200      -0.00680800       0.64537200
     2  I          0.18118800       0.49319200       0.85462800
     3  I          0.68118800       0.00680800       0.35462800
     4  I          0.81881200       0.50680800       0.14537200
     5  C          0.12622180      -0.00311810       0.55782170
     6  C          0.37377820       0.49688190       0.94217830
     7  C          0.87377820       0.00311810       0.44217830
     8  C          0.62622180       0.50311810       0.05782170
     9  C          0.03569160       0.90622000       0.60884150
    10  C          0.46430840       0.40622000       0.89115850
    11  C          0.96430840       0.09378000       0.39115850
    12  C          0.53569160       0.59378000       0.10884150
    13  H          0.06020000       0.84200000       0.68320000
    14  H          0.43980000       0.34200000       0.81680000
    15  H          0.93980000       0.15800000       0.31680000
    16  H          0.56020000       0.65800000       0.18320000
    17  C          0.90883160       0.90942000       0.55083150
    18  C          0.59116840       0.40942000       0.94916850
    19  C          0.09116840       0.09058000       0.44916850
    20  C          0.40883160       0.59058000       0.05083150
    21  H          0.84650000       0.84760000       0.58550000
    22  H          0.65350000       0.34760000       0.91450000
    23  H          0.15350000       0.15240000       0.41450000
    24  H          0.34650000       0.65240000       0.08550000
    25  N          0.58655840      -0.00031840       0.77661840
    26  N          0.91344160       0.49968160       0.72338160
    27  N          0.41344160       0.00031840       0.22338160
    28  N          0.08655840       0.50031840       0.27661840
    29  C          0.60595830       0.94372000       0.89263840
    30  C          0.89404170       0.44372000       0.60736160
    31  C          0.39404170       0.05628000       0.10736160
    32  C          0.10595830       0.55628000       0.39263840
    33  H          0.53720000       0.88850000       0.92150000
    34  H          0.96280000       0.38850000       0.57850000
    35  H          0.46280000       0.11150000       0.07850000
    36  H          0.03720000       0.61150000       0.42150000
    37  C          0.72031820       0.96122000       0.97325830
    38  C          0.77968180       0.46122000       0.52674170
    39  C          0.27968180       0.03878000       0.02674170
    40  C          0.22031820       0.53878000       0.47325830
    41  H          0.72880000       0.91930000       0.05500000
    42  H          0.77120000       0.41930000       0.44500000
    43  H          0.27120000       0.08070000       0.94500000
    44  H          0.22880000       0.58070000       0.55500000
    45  C          0.82282830       0.04102000       0.93313830
    46  C          0.67717170       0.54102000       0.56686170
    47  C          0.17717170       0.95898000       0.06686170
    48  C          0.32282830       0.45898000       0.43313830
    49  C          0.94986830       0.06393000       0.01601170
    50  C          0.55013170       0.56393000       0.48398830
    51  C          0.05013170       0.93607000       0.98398830
    52  C          0.44986830       0.43607000       0.51601170
    53  H          0.94010000       0.04300000       0.10170000
    54  H          0.55990000       0.54300000       0.39830000
    55  H          0.05990000       0.95700000       0.89830000
    56  H          0.44010000       0.45700000       0.60170000
    57  H          0.97930000       0.18840000       0.00990000
    58  H          0.52070000       0.68840000       0.49010000
    59  H          0.02070000       0.81160000      -0.00990000
    60  H          0.47930000       0.31160000       0.50990000
    61  C          0.68575830       0.07512000       0.73816840
    62  C          0.81424170       0.57512000       0.76183160
    63  C          0.31424170       0.92488000       0.26183160
    64  C          0.18575830       0.42488000       0.23816840
    65  H          0.67450000       0.11560000       0.65590000
    66  H          0.82550000       0.61560000       0.84410000
    67  H          0.32550000       0.88440000       0.34410000
    68  H          0.17450000       0.38440000       0.15590000
    69  C          0.80380840       0.09722000       0.81196840
    70  C          0.69619160       0.59722000       0.68803160
    71  C          0.19619160       0.90278000       0.18803160
    72  C          0.30380840       0.40278000       0.31196840
    73  H          0.87140000       0.15040000       0.78000000
    74  H          0.62860000       0.65040000       0.72000000
    75  H          0.12860000       0.84960000       0.22000000
    76  H          0.37140000       0.34960000       0.28000000
