data_ZANQUD
_symmetry_space_group_name_H-M    'P1'
_symmetry_Int_Tables_number       1
loop_
_symmetry_equiv_pos_site_id
_symmetry_equiv_pos_as_xyz
1 x,y,z
_cell_length_a                   5.203315
_cell_length_b                   9.5693
_cell_length_c                   13.3304
_cell_angle_alpha                105.8201
_cell_angle_beta                 98.15611
_cell_angle_gamma                102.1441
loop_
_atom_site_label
_atom_site_type_symbol
_atom_site_fract_x
_atom_site_fract_y
_atom_site_fract_z
     1  I          0.46169200       0.46921200       0.24183200
     2  I          0.53830800       0.53078800       0.75816800
     3  F          0.87483000       0.43259170       0.39310130
     4  F          0.12517000       0.56740830       0.60689870
     5  F          0.26682000       0.15905140       0.29485100
     6  F          0.73318000       0.84094860       0.70514900
     7  F          0.40303000       0.33672140       0.44571100
     8  F          0.59697000       0.66327860       0.55428900
     9  F          0.84952000       0.21842160       0.48101120
    10  F          0.15048000       0.78157840       0.51898880
    11  F          0.65483000       0.03364150       0.33722110
    12  F          0.34517000       0.96635850       0.66277890
    13  F          0.19472000      -0.00394870       0.42505100
    14  F          0.80528000       0.00394870       0.57494900
    15  F          0.75973000       0.24648170       0.24708120
    16  F          0.24027000       0.75351830       0.75291880
    17  F          0.43413000       0.16649130       0.57004900
    18  F          0.56587000       0.83350870       0.42995100
    19  C          0.66454000       0.33992000       0.31831160
    20  C          0.33546000       0.66008000       0.68168840
    21  C          0.48203000       0.24452000       0.36956150
    22  C          0.51797000       0.75548000       0.63043850
    23  C          0.61304000       0.13912000       0.41739160
    24  C          0.38696000       0.86088000       0.58260840
    25  C          0.44394000       0.06092000       0.48273150
    26  C          0.55606000       0.93908000       0.51726850
    27  N          0.23384000       0.64558000       0.14485150
    28  N          0.76616000       0.35442000       0.85514850
    29  C          0.08664000       0.72918000       0.19308170
    30  C          0.91336000       0.27082000       0.80691830
    31  C         -0.02856000       0.82288000       0.15053170
    32  C          0.02856000       0.17712000       0.84946830
    33  C          0.00734000       0.83188000       0.05163160
    34  C         -0.00734000       0.16812000       0.94836840
    35  C          0.89134000       0.93408000       0.00191190
    36  C          0.10866000       0.06592000      -0.00191190
    37  C          0.15804000       0.74368000       0.00027170
    38  C          0.84196000       0.25632000      -0.00027170
    39  C          0.26625000       0.65368000       0.04928180
    40  C          0.73375000       0.34632000       0.95071820
    41  H          0.05650000       0.72470000       0.25720000
    42  H          0.94350000       0.27530000       0.74280000
    43  H          0.75650000       0.96570000       0.03920000
    44  H          0.24350000       0.03430000       0.96080000
    45  H          0.18250000       0.74070000       0.92920000
    46  H          0.81750000       0.25930000       0.07080000
    47  H          0.79750000       0.87570000       0.93320000
    48  H          0.20250000       0.12430000       0.06680000
    49  H          0.37060000       0.60170000       0.01720000
    50  H          0.62940000       0.39830000       0.98280000
    51  H          0.87650000       0.88070000       0.19020000
    52  H          0.12350000       0.11930000       0.80980000
