data_ZAPMIO
_symmetry_space_group_name_H-M    'P1'
_symmetry_Int_Tables_number       1
loop_
_symmetry_equiv_pos_site_id
_symmetry_equiv_pos_as_xyz
1 x,y,z
_cell_length_a                   8.26209
_cell_length_b                   9.68591
_cell_length_c                   18.6612
_cell_angle_alpha                85.41301
_cell_angle_beta                 89.26201
_cell_angle_gamma                65.08401
loop_
_atom_site_label
_atom_site_type_symbol
_atom_site_fract_x
_atom_site_fract_y
_atom_site_fract_z
     1  I          0.50742600       0.26356500       0.98542781
     2  I          0.49257400       0.73643500       0.01457219
     3  O          0.77717000       0.77825000       0.18732000
     4  O          0.22283000       0.22175000       0.81268000
     5  H          0.84400000       0.69610000       0.21040000
     6  H          0.15600000       0.30390000       0.78960000
     7  O          0.64128000       0.82844000       0.29093000
     8  O          0.35872000       0.17156000       0.70907000
     9  O          0.11796000       0.31755000       0.30342000
    10  O          0.88204000       0.68245000       0.69658000
    11  H          0.03020000       0.38310000       0.32300000
    12  H          0.96980000       0.61690000       0.67700000
    13  O          0.04577000       0.50345000       0.21473000
    14  O          0.95423000       0.49655000       0.78527000
    15  C          0.65708000       0.86243000       0.22903000
    16  C          0.34292000       0.13757000       0.77097000
    17  C          0.53567000       0.01706000       0.19263000
    18  C          0.46433000       0.98294000       0.80737000
    19  C          0.39607000       0.11866000       0.23123000
    20  C          0.60393000       0.88134000       0.76877000
    21  H          0.37450000       0.09000000       0.27790000
    22  H          0.62550000       0.91000000       0.72210000
    23  C          0.29048000       0.26226000       0.19923000
    24  C          0.70952000       0.73774000       0.80077000
    25  C          0.31957000       0.30596000       0.12893000
    26  C          0.68043000       0.69404000       0.87107000
    27  H          0.24810000       0.40300000       0.10810000
    28  H          0.75190000       0.59700000       0.89190000
    29  C          0.45667000       0.20246000       0.09013000
    30  C          0.54333000       0.79754000       0.90987000
    31  C          0.56427000       0.05957000       0.12263000
    32  C          0.43573000       0.94043000       0.87737000
    33  H          0.65680000      -0.00890000       0.09700000
    34  H          0.34320000       0.00890000       0.90300000
    35  C          0.13878000       0.37447000       0.23923000
    36  C          0.86122000       0.62553000       0.76077000
    37  I          0.98987400       0.73309500       0.02582319
    38  I          0.01012600       0.26690500       0.97417681
    39  O          0.72433000       0.20726000       0.81933000
    40  O          0.27567000       0.79274000       0.18067000
    41  H          0.65640000       0.28670000       0.79460000
    42  H          0.34360000       0.71330000       0.20540000
    43  O          0.88473000       0.16315000       0.71862000
    44  O          0.11527000       0.83685000       0.28138000
    45  O          0.38457000       0.64206000       0.70913000
    46  O          0.61543000       0.35794000       0.29087000
    47  O          0.45827000       0.48056000       0.80623000
    48  O          0.54173000       0.51944000       0.19377000
    49  C          0.85502000       0.12477000       0.78013000
    50  C          0.14498000       0.87523000       0.21987000
    51  C          0.97092000       0.97016000       0.81593000
    52  C          0.02908000       0.02984000       0.18407000
    53  C          0.10757000       0.86496000       0.77953000
    54  C          0.89243000       0.13504000       0.22047000
    55  H          0.13080000       0.89000000       0.73250000
    56  H          0.86920000       0.11000000       0.26750000
    57  C          0.21107000       0.72036000       0.81333000
    58  C          0.78893000       0.27964000       0.18667000
    59  C          0.17647000       0.68296000       0.88323000
    60  C          0.82353000       0.31704000       0.11677000
    61  H          0.24430000       0.58610000       0.90520000
    62  H          0.75570000       0.41390000       0.09480000
    63  C          0.04137000       0.78907000       0.92033000
    64  C          0.95863000       0.21093000       0.07967000
    65  C          0.93763000       0.93147000       0.88723000
    66  C          0.06237000       0.06853000       0.11277000
    67  H          0.84570000       0.00220000       0.91200000
    68  H          0.15430000      -0.00220000       0.08800000
    69  C          0.36178000       0.60486000       0.77423000
    70  C          0.63822000       0.39514000       0.22577000
    71  O          0.66428000       0.44406000       0.64603000
    72  O          0.33572000       0.55594000       0.35397000
    73  H          0.72370000       0.36290000       0.67140000
    74  H          0.27630000       0.63710000       0.32860000
    75  H          0.57840000       0.50020000       0.67000000
    76  H          0.42160000       0.49980000       0.33000000
    77  N          0.75966000       0.62945000       0.48162000
    78  N          0.24034000       0.37055000       0.51838000
    79  N          0.73466000       0.50015000       0.49642000
    80  N          0.26534000       0.49985000       0.50358000
    81  H          0.67950000       0.47750000       0.53300000
    82  H          0.32050000       0.52250000       0.46700000
    83  N          0.88577000       0.48466000       0.39533000
    84  N          0.11423000       0.51534000       0.60467000
    85  C          0.81148000       0.41787000       0.44364000
    86  C          0.18852000       0.58213000       0.55636000
    87  H          0.81490000       0.32150000       0.43940000
    88  H          0.18510000       0.67850000       0.56060000
    89  C          0.84807000       0.61897000       0.42133000
    90  C          0.15193000       0.38103000       0.57867000
    91  H          0.87930000       0.69410000       0.40010000
    92  H          0.12070000       0.30590000       0.59990000
    93  C          0.67858000       0.75817000       0.52673000
    94  C          0.32142000       0.24183000       0.47327000
    95  H          0.72500000       0.83320000       0.51370000
    96  H          0.27500000       0.16680000       0.48630000
    97  H          0.71040000       0.72190000       0.57680000
    98  H          0.28960000       0.27810000       0.42320000
    99  C          0.47618000       0.83266000       0.51743000
   100  C          0.52382000       0.16734000       0.48257000
   101  C          0.37198000       0.88967000       0.57583000
   102  C          0.62802000       0.11033000       0.42417000
   103  H          0.42560000       0.88360000       0.62010000
   104  H          0.57440000       0.11640000       0.37990000
   105  C          0.18367000       0.95717000       0.56843000
   106  C          0.81633000       0.04283000       0.43157000
   107  H          0.11520000      -0.00470000       0.60820000
   108  H          0.88480000       0.00470000       0.39180000
   109  C          0.09936000       0.96776000       0.50403000
   110  C          0.90064000       0.03224000       0.49597000
   111  C          0.20698000       0.91387000       0.44463000
   112  C          0.79302000       0.08613000       0.55537000
   113  H          0.15310000       0.92150000       0.40000000
   114  H          0.84690000       0.07850000       0.60000000
   115  C          0.39327000       0.84887000       0.45093000
   116  C          0.60673000       0.15113000       0.54907000
   117  H          0.46190000       0.81620000       0.41050000
   118  H          0.53810000       0.18380000       0.58950000
