data_ZAPVEV
_symmetry_space_group_name_H-M    'P1'
_symmetry_Int_Tables_number       1
loop_
_symmetry_equiv_pos_site_id
_symmetry_equiv_pos_as_xyz
1 x,y,z
_cell_length_a                   7.05704
_cell_length_b                   12.68516
_cell_length_c                   14.88839
_cell_angle_alpha                80.1264
_cell_angle_beta                 77.9865
_cell_angle_gamma                76.6075
loop_
_atom_site_label
_atom_site_type_symbol
_atom_site_fract_x
_atom_site_fract_y
_atom_site_fract_z
     1  I          0.36540600       0.17922300       0.79304200
     2  I          0.63459400       0.82077700       0.20695800
     3  I          0.00766600       0.68119300       0.67831200
     4  I         -0.00766600       0.31880700       0.32168800
     5  Br         0.52934100       0.56180500       0.59761400
     6  Br         0.47065900       0.43819500       0.40238600
     7  Br         0.79005100       0.30259500       0.62625400
     8  Br         0.20994900       0.69740500       0.37374600
     9  O          0.78607000       0.69994000       0.46473000
    10  O          0.21393000       0.30006000       0.53527000
    11  C          0.88409000       0.61055000       0.48374000
    12  C          0.11591000       0.38945000       0.51626000
    13  C          0.79669000       0.52034000       0.54324000
    14  C          0.20331000       0.47966000       0.45676000
    15  C          0.90119000       0.41834000       0.55554000
    16  C          0.09881000       0.58166000       0.44446000
    17  Br         0.79434900       0.83925400       0.85418400
    18  Br         0.20565100       0.16074600       0.14581600
    19  Br         0.91773900       0.07335400       0.88912400
    20  Br         0.08226100       0.92664600       0.11087600
    21  O          0.39787000       0.82363000       0.96473000
    22  O          0.60213000       0.17637000       0.03527000
    23  C          0.44671000       0.90344000       0.98324000
    24  C          0.55329000       0.09656000       0.01676000
    25  C          0.63879000       0.93314000       0.93834000
    26  C          0.36121000       0.06686000       0.06166000
    27  C          0.68779000       0.02534000       0.95064000
    28  C          0.31221000       0.97466000       0.04936000
    29  N          0.69378000       0.07824000       0.36374000
    30  N          0.30622000       0.92176000       0.63626000
    31  N          0.73888000       0.98216000       0.63824000
    32  N          0.26112000       0.01784000       0.36176000
    33  H          0.80724700       0.91905300       0.65504200
    34  H          0.19275300       0.08094700       0.34495800
    35  H          0.67829600       0.02484900       0.67892500
    36  H          0.32170400       0.97515100       0.32107500
    37  C          0.80481000       0.97895000       0.38885000
    38  C          0.19519000       0.02105000       0.61115000
    39  H          0.86769800       0.93325500       0.34412300
    40  H          0.13230200       0.06674500       0.65587700
    41  C          0.82471000       0.94565000       0.47964000
    42  C          0.17529000       0.05435000       0.52036000
    43  H          0.90261700       0.87807200       0.49634100
    44  H          0.09738300       0.12192800       0.50365900
    45  C          0.72649000       0.01455000       0.54774000
    46  C          0.27351000       0.98545000       0.45226000
    47  C          0.61059000       0.11664000       0.51904000
    48  C          0.38941000       0.88336000       0.48096000
    49  H          0.54398900       0.16420300       0.56168800
    50  H          0.45601100       0.83579700       0.43831200
    51  C          0.59811000       0.14425000       0.42744000
    52  C          0.40189000       0.85575000       0.57256000
    53  H          0.52070100       0.21106600       0.40846400
    54  H          0.47929900       0.78893400       0.59153600
    55  C          0.67801000       0.11515000       0.26494000
    56  C          0.32199000       0.88485000       0.73506000
    57  H          0.55816400       0.16863300       0.26092400
    58  H          0.44183600       0.83136700       0.73907600
    59  H          0.67617600       0.05370200       0.23552100
    60  H          0.32382400       0.94629800       0.76447900
    61  H          0.78951700       0.14671400       0.23446000
    62  H          0.21048300       0.85328600       0.76554000
    63  N          0.21138000       0.56134000       0.08583000
    64  N          0.78862000       0.43866000       0.91417000
    65  N          0.27469000       0.46404000       0.82954000
    66  N          0.72531000       0.53596000       0.17046000
    67  H          0.24342400       0.51165300       0.78369000
    68  H          0.75657600       0.48834700       0.21631000
    69  H          0.31676700       0.39629700       0.82188600
    70  H          0.68323300       0.60370300       0.17811400
    71  C          0.27999000       0.45465000       0.07404000
    72  C          0.72001000       0.54535000       0.92596000
    73  H          0.31074000       0.40398300       0.12458800
    74  H          0.68926000       0.59601700       0.87541200
    75  C          0.30499000       0.41954000       0.98994000
    76  C          0.69501000       0.58046000       0.01006000
    77  H          0.35304300       0.34584900       0.98371900
    78  H          0.64695700       0.65415100       0.01628100
    79  C          0.25789000       0.49474000       0.91194000
    80  C          0.74211000       0.50526000       0.08806000
    81  C          0.18881000       0.60555000       0.92705000
    82  C          0.81119000       0.39445000       0.07295000
    83  H          0.15805000       0.65805700       0.87748100
    84  H          0.84195000       0.34194300       0.12251900
    85  C          0.16679000       0.63684000       0.01174000
    86  C          0.83321000       0.36316000       0.98826000
    87  H          0.12084400       0.71005400       0.01970700
    88  H          0.87915600       0.28994600       0.98029300
    89  C          0.19341100       0.59805000       0.17605000
    90  C          0.80658900       0.40195000       0.82395000
    91  H          0.21572100       0.53563600       0.22202300
    92  H          0.78427900       0.46436400       0.77797700
    93  H          0.06310500       0.64073900       0.19280900
    94  H          0.93689500       0.35926100       0.80719100
    95  H          0.28979200       0.64178200       0.17228100
    96  H          0.71020800       0.35821800       0.82771900
