data_ZAPVOF01
_symmetry_space_group_name_H-M    'P1'
_symmetry_Int_Tables_number       1
loop_
_symmetry_equiv_pos_site_id
_symmetry_equiv_pos_as_xyz
1 x,y,z
_cell_length_a                   7.773017
_cell_length_b                   9.5192
_cell_length_c                   17.2464
_cell_angle_alpha                90.0
_cell_angle_beta                 91.2544
_cell_angle_gamma                90.0
loop_
_atom_site_label
_atom_site_type_symbol
_atom_site_fract_x
_atom_site_fract_y
_atom_site_fract_z
     1  Br         0.37714100       0.88604100       0.57491500
     2  Br         0.62285900       0.38604100       0.92508500
     3  Br         0.62285900       0.11395900       0.42508500
     4  Br         0.37714100       0.61395900       0.07491500
     5  Br         0.12725110       0.12382110       0.67289500
     6  Br         0.87274890       0.62382110       0.82710500
     7  Br         0.87274890       0.87617890       0.32710500
     8  Br         0.12725110       0.37617890       0.17289500
     9  O          0.17661000       0.80219000       0.42884000
    10  O          0.82339000       0.30219000       0.07116000
    11  O          0.82339000       0.19781000       0.57116000
    12  O          0.17661000       0.69781000       0.92884000
    13  C          0.09921000       0.89559000       0.46035000
    14  C          0.90079000       0.39559000       0.03965000
    15  C          0.90079000       0.10441000       0.53965000
    16  C          0.09921000       0.60441000       0.96035000
    17  C          0.15929000       0.95729000       0.53574000
    18  C          0.84071000       0.45729000       0.96426000
    19  C          0.84071000       0.04271000       0.46426000
    20  C          0.15929000       0.54271000       0.03574000
    21  C          0.06649000       0.05019000       0.57344000
    22  C          0.93351000       0.55019000       0.92656000
    23  C          0.93351000       0.94981000       0.42656000
    24  C          0.06649000       0.44981000       0.07344000
    25  N          0.34119000       0.54677000       0.68544000
    26  N          0.65881000       0.04677000       0.81456000
    27  N          0.65881000       0.45323000       0.31456000
    28  N          0.34119000       0.95323000       0.18544000
    29  C          0.19871700       0.54051300       0.64511000
    30  C          0.80128300       0.04051300       0.85489000
    31  C          0.80128300       0.45948700       0.35489000
    32  C          0.19871700       0.95948700       0.14511000
    33  H          0.10120000       0.58730000       0.66270000
    34  H          0.89880000       0.08730000       0.83730000
    35  H          0.89880000       0.41270000       0.33730000
    36  H          0.10120000       0.91270000       0.16270000
    37  C          0.19230000       0.46820000       0.57921300
    38  C          0.80770000       0.96820000       0.92078700
    39  C          0.80770000       0.53180000       0.42078700
    40  C          0.19230000       0.03180000       0.07921300
    41  H          0.09150000       0.46740000       0.55010000
    42  H          0.90850000       0.96740000       0.94990000
    43  H          0.90850000       0.53260000       0.44990000
    44  H          0.09150000       0.03260000       0.05010000
    45  C          0.32540000       0.39720000       0.55519000
    46  C          0.67460000       0.89720000       0.94481000
    47  C          0.67460000       0.60280000       0.44481000
    48  C          0.32540000       0.10280000       0.05519000
    49  H          0.32110000       0.34660000       0.50910000
    50  H          0.67890000       0.84660000       0.99090000
    51  H          0.67890000       0.65340000       0.49090000
    52  H          0.32110000       0.15340000       0.00910000
    53  C          0.47630000       0.39961300       0.60021200
    54  C          0.52370000       0.89961300       0.89978800
    55  C          0.52370000       0.60038700       0.39978800
    56  C          0.47630000       0.10038700       0.10021200
    57  H          0.57250000       0.34870000       0.58520000
    58  H          0.42750000       0.84870000       0.91480000
    59  H          0.42750000       0.65130000       0.41480000
    60  H          0.57250000       0.15130000       0.08520000
    61  C          0.47731200       0.47721100       0.66567000
    62  C          0.52268800       0.97721100       0.83433000
    63  C          0.52268800       0.52278900       0.33433000
    64  C          0.47731200       0.02278900       0.16567000
    65  H          0.57560000       0.48080000       0.69620000
    66  H          0.42440000       0.98080000       0.80380000
    67  H          0.42440000       0.51920000       0.30380000
    68  H          0.57560000       0.01920000       0.19620000
    69  C          0.35620000       0.63461500       0.75638000
    70  C          0.64380000       0.13461500       0.74362000
    71  C          0.64380000       0.36538500       0.24362000
    72  C          0.35620000       0.86538500       0.25638000
    73  H          0.46810000       0.62230000       0.77870000
    74  H          0.53190000       0.12230000       0.72130000
    75  H          0.53190000       0.37770000       0.22130000
    76  H          0.46810000       0.87770000       0.27870000
    77  H          0.26990000       0.60680000       0.79310000
    78  H          0.73010000       0.10680000       0.70690000
    79  H          0.73010000       0.39320000       0.20690000
    80  H          0.26990000       0.89320000       0.29310000
    81  H          0.33990000       0.73160000       0.74290000
    82  H          0.66010000       0.23160000       0.75710000
    83  H          0.66010000       0.26840000       0.25710000
    84  H          0.33990000       0.76840000       0.24290000
    85  I          0.21843600       0.22704600       0.35367300
    86  I          0.78156400       0.72704600       0.14632700
    87  I          0.78156400       0.77295400       0.64632700
    88  I          0.21843600       0.27295400       0.85367300
