data_ZAPVOF
_symmetry_space_group_name_H-M    'P1'
_symmetry_Int_Tables_number       1
loop_
_symmetry_equiv_pos_site_id
_symmetry_equiv_pos_as_xyz
1 x,y,z
_cell_length_a                   15.48075
_cell_length_b                   9.13764
_cell_length_c                   17.35245
_cell_angle_alpha                90.0
_cell_angle_beta                 91.2173
_cell_angle_gamma                90.0
loop_
_atom_site_label
_atom_site_type_symbol
_atom_site_fract_x
_atom_site_fract_y
_atom_site_fract_z
     1  I          0.34853300       0.77558600       0.84926200
     2  I          0.65146700       0.27558600       0.65073800
     3  I          0.65146700       0.22441400       0.15073800
     4  I          0.34853300       0.72441400       0.34926200
     5  I          0.12623300       0.22696700       0.14409300
     6  I          0.87376700       0.72696700       0.35590700
     7  I          0.87376700       0.77303300       0.85590700
     8  I          0.12623300       0.27303300       0.64409300
     9  Br         0.55375500       0.86499100       0.92886400
    10  Br         0.44624500       0.36499100       0.57113600
    11  Br         0.44624500       0.13500900       0.07113600
    12  Br         0.55375500       0.63500900       0.42886400
    13  Br         0.68366600       0.09724110       0.83062400
    14  Br         0.31633400       0.59724110       0.66937600
    15  Br         0.31633400       0.90275890       0.16937600
    16  Br         0.68366600       0.40275890       0.33062400
    17  Br         0.93027500       0.08148100       0.07671400
    18  Br         0.06972500       0.58148100       0.42328600
    19  Br         0.06972500       0.91851900       0.92328600
    20  Br         0.93027500       0.41851900       0.57671400
    21  Br         0.80643500       0.84026100       0.17262400
    22  Br         0.19356500       0.34026100       0.32737600
    23  Br         0.19356500       0.15973900       0.82737600
    24  Br         0.80643500       0.65973900       0.67262400
    25  O          0.64774000       0.77298000       0.07463000
    26  O          0.35226000       0.27298000       0.42537000
    27  O          0.35226000       0.22702000       0.92537000
    28  O          0.64774000       0.72702000       0.57463000
    29  O          0.83174000       0.18188000       0.93583000
    30  O          0.16826000       0.68188000       0.56417000
    31  O          0.16826000       0.81812000       0.06417000
    32  O          0.83174000       0.31812000       0.43583000
    33  C          0.69075000       0.86409000       0.04294000
    34  C          0.30925000       0.36409000       0.45706000
    35  C          0.30925000       0.13591000       0.95706000
    36  C          0.69075000       0.63591000       0.54294000
    37  C          0.66255000       0.92939000       0.96744000
    38  C          0.33745000       0.42939000       0.53256000
    39  C          0.33745000       0.07061000       0.03256000
    40  C          0.66255000       0.57061000       0.46744000
    41  C          0.71225000       0.02129000       0.92904000
    42  C          0.28775000       0.52129000       0.57096000
    43  C          0.28775000       0.97871000       0.07096000
    44  C          0.71225000       0.47871000       0.42904000
    45  C          0.79405000       0.08081000       0.96444000
    46  C          0.20595000       0.58081000       0.53556000
    47  C          0.20595000       0.91919000       0.03556000
    48  C          0.79405000       0.41919000       0.46444000
    49  C          0.82315000       0.01079000       0.03754000
    50  C          0.17685000       0.51079000       0.46246000
    51  C          0.17685000      -0.01079000       0.96246000
    52  C          0.82315000       0.48921000       0.53754000
    53  C          0.77475000       0.91649000       0.07514000
    54  C          0.22525000       0.41649000       0.42486000
    55  C          0.22525000       0.08351000       0.92486000
    56  C          0.77475000       0.58351000       0.57514000
    57  N          0.42044000       0.05379000       0.68983000
    58  N          0.57956000       0.55379000       0.81017000
    59  N          0.57956000       0.94621000       0.31017000
    60  N          0.42044000       0.44621000       0.18983000
    61  C          0.48365000       0.98349000       0.65495000
    62  C          0.51635000       0.48349000       0.84505000
    63  C          0.51635000       0.01651000       0.34505000
    64  C          0.48365000       0.51651000       0.15495000
    65  H          0.53930000      -0.01370000       0.67580000
    66  H          0.46070000       0.48630000       0.82420000
    67  H          0.46070000       0.01370000       0.32420000
    68  H          0.53930000       0.51370000       0.17580000
    69  C          0.46766000       0.90678900       0.58815000
    70  C          0.53234000       0.40678900       0.91185000
    71  C          0.53234000       0.09321100       0.41185000
    72  C          0.46766000       0.59321100       0.08815000
    73  H          0.51220000       0.85750000       0.56400000
    74  H          0.48780000       0.35750000       0.93600000
    75  H          0.48780000       0.14250000       0.43600000
    76  H          0.51220000       0.64250000       0.06400000
    77  C          0.38467000       0.90318700       0.55675000
    78  C          0.61533000       0.40318700       0.94325000
    79  C          0.61533000       0.09681300       0.44325000
    80  C          0.38467000       0.59681300       0.05675000
    81  H          0.37270000       0.85130000       0.51160000
    82  H          0.62730000       0.35130000       0.98840000
    83  H          0.62730000       0.14870000       0.48840000
    84  H          0.37270000       0.64870000       0.01160000
    85  C          0.31966000       0.97818500       0.59375000
    86  C          0.68034000       0.47818500       0.90625000
    87  C          0.68034000       0.02181500       0.40625000
    88  C          0.31966000       0.52181500       0.09375000
    89  H          0.26340000       0.97730000       0.57370000
    90  H          0.73660000       0.47730000       0.92630000
    91  H          0.73660000       0.02270000       0.42630000
    92  H          0.26340000       0.52270000       0.07370000
    93  C          0.33946000       0.05511200       0.66115000
    94  C          0.66054000       0.55511200       0.83885000
    95  C          0.66054000       0.94488800       0.33885000
    96  C          0.33946000       0.44488800       0.16115000
    97  H          0.29660000       0.10710000       0.68610000
    98  H          0.70340000       0.60710000       0.81390000
    99  H          0.70340000       0.89290000       0.31390000
   100  H          0.29660000       0.39290000       0.18610000
   101  C          0.43866000       0.13771200       0.76074000
   102  C          0.56134000       0.63771200       0.73926000
   103  C          0.56134000       0.86228800       0.23926000
   104  C          0.43866000       0.36228800       0.26074000
   105  H          0.38610000       0.18080000       0.77840000
   106  H          0.61390000       0.68080000       0.72160000
   107  H          0.61390000       0.81920000       0.22160000
   108  H          0.38610000       0.31920000       0.27840000
   109  H          0.47970000       0.21350000       0.75020000
   110  H          0.52030000       0.71350000       0.74980000
   111  H          0.52030000       0.78650000       0.24980000
   112  H          0.47970000       0.28650000       0.25020000
   113  H          0.46190000       0.07350000       0.79970000
   114  H          0.53810000       0.57350000       0.70030000
   115  H          0.53810000       0.92650000       0.20030000
   116  H          0.46190000       0.42650000       0.29970000
   117  N          0.08591000       0.54041500       0.82197000
   118  N          0.91409000       0.04041500       0.67803000
   119  N          0.91409000       0.45958500       0.17803000
   120  N          0.08591000       0.95958500       0.32197000
   121  C          0.14157000       0.53161300       0.89431000
   122  C          0.85843000       0.03161300       0.60569000
   123  C          0.85843000       0.46838700       0.10569000
   124  C          0.14157000       0.96838700       0.39431000
   125  H          0.19250000       0.58410000       0.90140000
   126  H          0.80750000       0.08410000       0.59860000
   127  H          0.80750000       0.41590000       0.09860000
   128  H          0.19250000       0.91590000       0.40140000
   129  C          0.10971100       0.43961400       0.94786000
   130  C          0.89028900       0.93961400       0.55214000
   131  C          0.89028900       0.56038600       0.05214000
   132  C          0.10971100       0.06038600       0.44786000
   133  H          0.14000000       0.42790000      -0.00570000
   134  H          0.86000000       0.92790000       0.50570000
   135  H          0.86000000       0.57210000       0.00570000
   136  H          0.14000000       0.07210000       0.49430000
   137  C          0.04001100       0.36881400       0.93701000
   138  C          0.95998900       0.86881400       0.56299000
   139  C          0.95998900       0.63118600       0.06299000
   140  C          0.04001100       0.13118600       0.43701000
   141  H          0.02430000       0.30150000       0.97440000
   142  H          0.97570000       0.80150000       0.52560000
   143  H          0.97570000       0.69850000       0.02560000
   144  H          0.02430000       0.19850000       0.47440000
   145  C         -0.00881100       0.38361700       0.87951200
   146  C          0.00881100       0.88361700       0.62048800
   147  C          0.00881100       0.61638300       0.12048800
   148  C         -0.00881100       0.11638300       0.37951200
   149  H          0.93780000       0.33700000       0.87940000
   150  H          0.06220000       0.83700000       0.62060000
   151  H          0.06220000       0.66300000       0.12060000
   152  H          0.93780000       0.16300000       0.37940000
   153  C          0.00877000       0.45220000       0.82667000
   154  C         -0.00877000       0.95220000       0.67333000
   155  C         -0.00877000       0.54780000       0.17333000
   156  C          0.00877000       0.04780000       0.32667000
   157  H          0.97100000       0.45000000       0.78420000
   158  H          0.02900000       0.95000000       0.71580000
   159  H          0.02900000       0.55000000       0.21580000
   160  H          0.97100000       0.05000000       0.28420000
   161  C          0.10441000       0.65311700       0.76228000
   162  C          0.89559000       0.15311700       0.73772000
   163  C          0.89559000       0.34688300       0.23772000
   164  C          0.10441000       0.84688300       0.26228000
   165  H          0.15990000       0.69640000       0.77300000
   166  H          0.84010000       0.19640000       0.72700000
   167  H          0.84010000       0.30360000       0.22700000
   168  H          0.15990000       0.80360000       0.27300000
   169  H          0.06070000       0.72750000       0.76290000
   170  H          0.93930000       0.22750000       0.73710000
   171  H          0.93930000       0.27250000       0.23710000
   172  H          0.06070000       0.77250000       0.26290000
   173  H          0.10470000       0.60780000       0.71230000
   174  H          0.89530000       0.10780000       0.78770000
   175  H          0.89530000       0.39220000       0.28770000
   176  H          0.10470000       0.89220000       0.21230000
