data_ZAQMAH
_symmetry_space_group_name_H-M    'P1'
_symmetry_Int_Tables_number       1
loop_
_symmetry_equiv_pos_site_id
_symmetry_equiv_pos_as_xyz
1 x,y,z
_cell_length_a                   8.968518
_cell_length_b                   9.730519
_cell_length_c                   13.9953
_cell_angle_alpha                90.0
_cell_angle_beta                 102.143
_cell_angle_gamma                90.0
loop_
_atom_site_label
_atom_site_type_symbol
_atom_site_fract_x
_atom_site_fract_y
_atom_site_fract_z
     1  Cl         0.02647140       0.97061880       0.66801800
     2  Cl         0.47352860       0.47061880       0.83198200
     3  Cl         0.97352860       0.02938120       0.33198200
     4  Cl         0.52647140       0.52938120       0.16801800
     5  O          0.31813000       0.29393000       0.37602000
     6  O          0.18187000       0.79393000       0.12398000
     7  O          0.68187000       0.70607000       0.62398000
     8  O          0.81813000       0.20607000       0.87602000
     9  O          0.21593000       0.56243000       0.39802000
    10  O          0.28407000       0.06243000       0.10198000
    11  O          0.78407000       0.43757000       0.60198000
    12  O          0.71593000       0.93757000       0.89802000
    13  O          0.36344000       0.72983000       0.55913000
    14  O          0.13656000       0.22983000       0.94087000
    15  O          0.63656000       0.27017000       0.44087000
    16  O          0.86344000       0.77017000       0.05913000
    17  C          0.11886000       0.45376000       0.35814000
    18  C          0.38114000       0.95376000       0.14186000
    19  C          0.88114000       0.54624000       0.64186000
    20  C          0.61886000       0.04624000       0.85814000
    21  H          0.03030000       0.48940000       0.31290000
    22  H          0.46970000      -0.01060000       0.18710000
    23  H          0.96970000       0.51060000       0.68710000
    24  H          0.53030000       0.01060000       0.81290000
    25  H          0.08420000       0.40460000       0.40970000
    26  H          0.41580000       0.90460000       0.09030000
    27  H          0.91580000       0.59540000       0.59030000
    28  H          0.58420000       0.09540000       0.90970000
    29  C          0.24337000       0.77376000       0.48504000
    30  C          0.25663000       0.27376000       0.01496000
    31  C          0.75663000       0.22624000       0.51496000
    32  C          0.74337000       0.72624000       0.98504000
    33  H          0.28320000       0.81230000       0.43160000
    34  H          0.21680000       0.31230000       0.06840000
    35  H          0.71680000       0.18770000       0.56840000
    36  H          0.78320000       0.68770000       0.93160000
    37  H          0.18530000       0.84440000       0.50980000
    38  H          0.31470000       0.34440000      -0.00980000
    39  H          0.81470000       0.15560000       0.49020000
    40  H          0.68530000       0.65560000       0.00980000
    41  C          0.20366000       0.36075000       0.30693000
    42  C          0.29634000       0.86075000       0.19307000
    43  C          0.79634000       0.63925000       0.69307000
    44  C          0.70366000       0.13925000       0.80693000
    45  H          0.13490000       0.29330000       0.27030000
    46  H          0.36510000       0.79330000       0.22970000
    47  H          0.86510000       0.70670000       0.72970000
    48  H          0.63490000       0.20670000       0.77030000
    49  H          0.24970000       0.41230000       0.26130000
    50  H          0.25030000       0.91230000       0.23870000
    51  H          0.75030000       0.58770000       0.73870000
    52  H          0.74970000       0.08770000       0.76130000
    53  C          0.45787000       0.84026000       0.59764000
    54  C          0.04213000       0.34026000       0.90236000
    55  C          0.54213000       0.15974000       0.40236000
    56  C          0.95787000       0.65974000       0.09764000
    57  C          0.14486000       0.65687000       0.45024000
    58  C          0.35514000       0.15687000       0.04976000
    59  C          0.85514000       0.34313000       0.54976000
    60  C          0.64486000       0.84313000       0.95024000
    61  H          0.11770000       0.61070000       0.50560000
    62  H          0.38230000       0.11070000      -0.00560000
    63  H          0.88230000       0.38930000       0.49440000
    64  H          0.61770000       0.88930000       0.00560000
    65  H          0.05150000       0.68980000       0.40820000
    66  H          0.44850000       0.18980000       0.09180000
    67  H          0.94850000       0.31020000       0.59180000
    68  H          0.55150000       0.81020000       0.90820000
    69  C          0.41437000       0.21206000       0.33074000
    70  C          0.08563000       0.71206000       0.16926000
    71  C          0.58563000       0.78794000       0.66926000
    72  C          0.91437000       0.28794000       0.83074000
    73  H          0.45180000       0.26670000       0.28270000
    74  H          0.04820000       0.76670000       0.21730000
    75  H          0.54820000       0.73330000       0.71730000
    76  H          0.95180000       0.23330000       0.78270000
    77  H          0.35640000       0.13570000       0.29690000
    78  H          0.14360000       0.63570000       0.20310000
    79  H          0.64360000       0.86430000       0.70310000
    80  H          0.85640000       0.36430000       0.79690000
    81  N          0.21754000       0.17124000       0.54673000
    82  N          0.28246000       0.67124000       0.95327000
    83  N          0.78246000       0.82876000       0.45327000
    84  N          0.71754000       0.32876000       0.04673000
    85  H          0.22670000       0.18370000       0.48740000
    86  H          0.27330000       0.68370000       0.01260000
    87  H          0.77330000       0.81630000       0.51260000
    88  H          0.72670000       0.31630000       0.98740000
    89  H          0.16070000       0.10590000       0.56030000
    90  H          0.33930000       0.60590000       0.93970000
    91  H          0.83930000       0.89410000       0.43970000
    92  H          0.66070000       0.39410000       0.06030000
    93  N          0.27134000       0.23144000       0.70733000
    94  N          0.22866000       0.73144000       0.79267000
    95  N          0.72866000       0.76856000       0.29267000
    96  N          0.77134000       0.26856000       0.20733000
    97  H          0.31620000       0.28400000       0.75400000
    98  H          0.18380000       0.78400000       0.74600000
    99  H          0.68380000       0.71600000       0.24600000
   100  H          0.81620000       0.21600000       0.25400000
   101  H          0.21390000       0.16550000       0.71920000
   102  H          0.28610000       0.66550000       0.78080000
   103  H          0.78610000       0.83450000       0.28080000
   104  H          0.71390000       0.33450000       0.21920000
   105  C          0.29055000       0.25204000       0.61683000
   106  C          0.20945000       0.75204000       0.88317000
   107  C          0.70945000       0.74796000       0.38317000
   108  C          0.79055000       0.24796000       0.11683000
   109  N          0.37765000       0.35204000       0.59873000
   110  N          0.12235000       0.85204000       0.90127000
   111  N          0.62235000       0.64796000       0.40127000
   112  N          0.87765000       0.14796000       0.09873000
   113  H          0.38840000       0.36640000       0.53990000
   114  H          0.11160000       0.86640000       0.96010000
   115  H          0.61160000       0.63360000       0.46010000
   116  H          0.88840000       0.13360000       0.03990000
   117  H          0.42410000       0.40340000       0.64560000
   118  H          0.07590000       0.90340000       0.85440000
   119  H          0.57590000       0.59660000       0.35440000
   120  H          0.92410000       0.09660000       0.14560000
