data_ZAQQEN
_symmetry_space_group_name_H-M    'P1'
_symmetry_Int_Tables_number       1
loop_
_symmetry_equiv_pos_site_id
_symmetry_equiv_pos_as_xyz
1 x,y,z
_cell_length_a                   17.2814
_cell_length_b                   13.3803
_cell_length_c                   8.4422
_cell_angle_alpha                90.0
_cell_angle_beta                 94.182
_cell_angle_gamma                90.0
loop_
_atom_site_label
_atom_site_type_symbol
_atom_site_fract_x
_atom_site_fract_y
_atom_site_fract_z
     1  S          0.00000000       0.55371000       0.25000000
     2  S          0.50000000       0.05371000       0.25000000
     3  S          0.00000000       0.44629000       0.75000000
     4  S          0.50000000       0.94629000       0.75000000
     5  O          0.07671000       0.55951000       0.10912000
     6  O          0.92329000       0.55951000       0.39088000
     7  O          0.57671000       0.05951000       0.10912000
     8  O          0.42329000       0.05951000       0.39088000
     9  O          0.92329000       0.44049000       0.89088000
    10  O          0.07671000       0.44049000       0.60912000
    11  O          0.42329000       0.94049000       0.89088000
    12  O          0.57671000       0.94049000       0.60912000
    13  N          0.12561000       0.64182000       0.13203000
    14  N          0.87439000       0.64182000       0.36797000
    15  N          0.62561000       0.14182000       0.13203000
    16  N          0.37439000       0.14182000       0.36797000
    17  N          0.87439000       0.35818000       0.86797000
    18  N          0.12561000       0.35818000       0.63203000
    19  N          0.37439000       0.85818000       0.86797000
    20  N          0.62561000       0.85818000       0.63203000
    21  C          0.06031000       0.63792000       0.37123000
    22  C          0.93969000       0.63792000       0.12877000
    23  C          0.56031000       0.13792000       0.37123000
    24  C          0.43969000       0.13792000       0.12877000
    25  C          0.93969000       0.36208000       0.62877000
    26  C          0.06031000       0.36208000       0.87123000
    27  C          0.43969000       0.86208000       0.62877000
    28  C          0.56031000       0.86208000       0.87123000
    29  C          0.11781000       0.68262000       0.26793000
    30  C          0.88219000       0.68262000       0.23207000
    31  C          0.61781000       0.18262000       0.26793000
    32  C          0.38219000       0.18262000       0.23207000
    33  C          0.88219000       0.31738000       0.73207000
    34  C          0.11781000       0.31738000       0.76793000
    35  C          0.38219000       0.81738000       0.73207000
    36  C          0.61781000       0.81738000       0.76793000
    37  C          0.16461000       0.77112000       0.31732000
    38  C          0.83539000       0.77112000       0.18268000
    39  C          0.66461000       0.27112000       0.31732000
    40  C          0.33539000       0.27112000       0.18268000
    41  C          0.83539000       0.22888000       0.68268000
    42  C          0.16461000       0.22888000       0.81732000
    43  C          0.33539000       0.72888000       0.68268000
    44  C          0.66461000       0.72888000       0.81732000
    45  C          0.15031000       0.82312000       0.45303000
    46  C          0.84969000       0.82312000       0.04697000
    47  C          0.65031000       0.32312000       0.45303000
    48  C          0.34969000       0.32312000       0.04697000
    49  C          0.84969000       0.17688000       0.54697000
    50  C          0.15031000       0.17688000       0.95303000
    51  C          0.34969000       0.67688000       0.54697000
    52  C          0.65031000       0.67688000       0.95303000
    53  C          0.19332000       0.90702000       0.49853000
    54  C          0.80668000       0.90702000       0.00147000
    55  C          0.69332000       0.40702000       0.49853000
    56  C          0.30668000       0.40702000       0.00147000
    57  C          0.80668000       0.09298000       0.50147000
    58  C          0.19332000       0.09298000      -0.00147000
    59  C          0.30668000       0.59298000       0.50147000
    60  C          0.69332000       0.59298000      -0.00147000
    61  C          0.25162000       0.93962000       0.41044000
    62  C          0.74838000       0.93962000       0.08956000
    63  C          0.75162000       0.43962000       0.41044000
    64  C          0.24838000       0.43962000       0.08956000
    65  C          0.74838000       0.06038000       0.58956000
    66  C          0.25162000       0.06038000       0.91044000
    67  C          0.24838000       0.56038000       0.58956000
    68  C          0.75162000       0.56038000       0.91044000
    69  C          0.26712000       0.88842000       0.27664000
    70  C          0.73288000       0.88842000       0.22336000
    71  C          0.76712000       0.38842000       0.27664000
    72  C          0.23288000       0.38842000       0.22336000
    73  C          0.73288000       0.11158000       0.72336000
    74  C          0.26712000       0.11158000       0.77664000
    75  C          0.23288000       0.61158000       0.72336000
    76  C          0.76712000       0.61158000       0.77664000
    77  C          0.22452000       0.80432000       0.22903000
    78  C          0.77548000       0.80432000       0.27097000
    79  C          0.72452000       0.30432000       0.22903000
    80  C          0.27548000       0.30432000       0.27097000
    81  C          0.77548000       0.19568000       0.77097000
    82  C          0.22452000       0.19568000       0.72903000
    83  C          0.27548000       0.69568000       0.77097000
    84  C          0.72452000       0.69568000       0.72903000
    85  H          0.08640000       0.60240000       0.45840000
    86  H          0.91360000       0.60240000       0.04160000
    87  H          0.58640000       0.10240000       0.45840000
    88  H          0.41360000       0.10240000       0.04160000
    89  H          0.91360000       0.39760000       0.54160000
    90  H          0.08640000       0.39760000       0.95840000
    91  H          0.41360000       0.89760000       0.54160000
    92  H          0.58640000       0.89760000       0.95840000
    93  H          0.02900000       0.68950000       0.41320000
    94  H          0.97100000       0.68950000       0.08680000
    95  H          0.52900000       0.18950000       0.41320000
    96  H          0.47100000       0.18950000       0.08680000
    97  H          0.97100000       0.31050000       0.58680000
    98  H          0.02900000       0.31050000       0.91320000
    99  H          0.47100000       0.81050000       0.58680000
   100  H          0.52900000       0.81050000       0.91320000
   101  H          0.11000000       0.80060000       0.51680000
   102  H          0.89000000       0.80060000       0.98320000
   103  H          0.61000000       0.30060000       0.51680000
   104  H          0.39000000       0.30060000       0.98320000
   105  H          0.89000000       0.19940000       0.48320000
   106  H          0.11000000       0.19940000       0.01680000
   107  H          0.39000000       0.69940000       0.48320000
   108  H          0.61000000       0.69940000       0.01680000
   109  H          0.18220000       0.94160000       0.59380000
   110  H          0.81780000       0.94160000       0.90620000
   111  H          0.68220000       0.44160000       0.59380000
   112  H          0.31780000       0.44160000       0.90620000
   113  H          0.81780000       0.05840000       0.40620000
   114  H          0.18220000       0.05840000       0.09380000
   115  H          0.31780000       0.55840000       0.40620000
   116  H          0.68220000       0.55840000       0.09380000
   117  H          0.28040000      -0.00140000       0.44150000
   118  H          0.71960000      -0.00140000       0.05850000
   119  H          0.78040000       0.49860000       0.44150000
   120  H          0.21960000       0.49860000       0.05850000
   121  H          0.71960000       0.00140000       0.55850000
   122  H          0.28040000       0.00140000       0.94150000
   123  H          0.21960000       0.50140000       0.55850000
   124  H          0.78040000       0.50140000       0.94150000
   125  H          0.30820000       0.91120000       0.21490000
   126  H          0.69180000       0.91120000       0.28510000
   127  H          0.80820000       0.41120000       0.21490000
   128  H          0.19180000       0.41120000       0.28510000
   129  H          0.69180000       0.08880000       0.78510000
   130  H          0.30820000       0.08880000       0.71490000
   131  H          0.19180000       0.58880000       0.78510000
   132  H          0.80820000       0.58880000       0.71490000
   133  H          0.23680000       0.76830000       0.13560000
   134  H          0.76320000       0.76830000       0.36440000
   135  H          0.73680000       0.26830000       0.13560000
   136  H          0.26320000       0.26830000       0.36440000
   137  H          0.76320000       0.23170000       0.86440000
   138  H          0.23680000       0.23170000       0.63560000
   139  H          0.26320000       0.73170000       0.86440000
   140  H          0.73680000       0.73170000       0.63560000
   141  C          0.03102000       0.75633000       0.79936000
   142  C          0.96898000       0.75633000       0.70064000
   143  C          0.53102000       0.25633000       0.79936000
   144  C          0.46898000       0.25633000       0.70064000
   145  C          0.96898000       0.24367000       0.20064000
   146  C          0.03102000       0.24367000       0.29936000
   147  C          0.46898000       0.74367000       0.20064000
   148  C          0.53102000       0.74367000       0.29936000
   149  C          0.06322000       0.84174000       0.85396000
   150  C          0.93678000       0.84174000       0.64604000
   151  C          0.56322000       0.34174000       0.85396000
   152  C          0.43678000       0.34174000       0.64604000
   153  C          0.93678000       0.15826000       0.14604000
   154  C          0.06322000       0.15826000       0.35396000
   155  C          0.43678000       0.65826000       0.14604000
   156  C          0.56322000       0.65826000       0.35396000
   157  C          0.03223000       0.93123000       0.80295000
   158  C          0.96777000       0.93123000       0.69705000
   159  C          0.53223000       0.43123000       0.80295000
   160  C          0.46777000       0.43123000       0.69705000
   161  C          0.96777000       0.06877000       0.19705000
   162  C          0.03223000       0.06877000       0.30295000
   163  C          0.46777000       0.56877000       0.19705000
   164  C          0.53223000       0.56877000       0.30295000
   165  H          0.05370000       0.69430000       0.83600000
   166  H          0.94630000       0.69430000       0.66400000
   167  H          0.55370000       0.19430000       0.83600000
   168  H          0.44630000       0.19430000       0.66400000
   169  H          0.94630000       0.30570000       0.16400000
   170  H          0.05370000       0.30570000       0.33600000
   171  H          0.44630000       0.80570000       0.16400000
   172  H          0.55370000       0.80570000       0.33600000
   173  H          0.10830000       0.84130000       0.92750000
   174  H          0.89170000       0.84130000       0.57250000
   175  H          0.60830000       0.34130000       0.92750000
   176  H          0.39170000       0.34130000       0.57250000
   177  H          0.89170000       0.15870000       0.07250000
   178  H          0.10830000       0.15870000       0.42750000
   179  H          0.39170000       0.65870000       0.07250000
   180  H          0.60830000       0.65870000       0.42750000
   181  H          0.05470000      -0.00700000       0.84130000
   182  H          0.94530000      -0.00700000       0.65870000
   183  H          0.55470000       0.49300000       0.84130000
   184  H          0.44530000       0.49300000       0.65870000
   185  H          0.94530000       0.00700000       0.15870000
   186  H          0.05470000       0.00700000       0.34130000
   187  H          0.44530000       0.50700000       0.15870000
   188  H          0.55470000       0.50700000       0.34130000
