data_ZARFUV
_symmetry_space_group_name_H-M    'P1'
_symmetry_Int_Tables_number       1
loop_
_symmetry_equiv_pos_site_id
_symmetry_equiv_pos_as_xyz
1 x,y,z
_cell_length_a                   5.7783
_cell_length_b                   6.3543
_cell_length_c                   10.0135
_cell_angle_alpha                102.2955
_cell_angle_beta                 93.8615
_cell_angle_gamma                97.7815
loop_
_atom_site_label
_atom_site_type_symbol
_atom_site_fract_x
_atom_site_fract_y
_atom_site_fract_z
     1  C          0.32248000       0.57328000       0.42605000
     2  C          0.67752000       0.42672000       0.57395000
     3  C          0.39309000       0.37268000       0.37865000
     4  C          0.60691000       0.62732000       0.62135000
     5  C          0.43399000       0.69818000       0.54945000
     6  C          0.56601000       0.30182000       0.45055000
     7  F          0.29016000       0.24286000       0.25933000
     8  F          0.70984000       0.75714000       0.74067000
     9  F          0.37186000       0.89225000       0.60214000
    10  F          0.62814000       0.10775000       0.39786000
    11  I          0.05048600       0.67187600       0.31973400
    12  I          0.94951400       0.32812400       0.68026600
    13  C          0.57341000       0.84939000       0.07456000
    14  C          0.42659000       0.15061000       0.92544000
    15  C          0.34401000       0.80291000      -0.00926000
    16  C          0.65599000       0.19709000       0.00926000
    17  H          0.24640000       0.67190000      -0.01410000
    18  H          0.75360000       0.32810000       0.01410000
    19  C          0.27631000       0.94151000       0.92384000
    20  C          0.72369000       0.05849000       0.07616000
    21  H          0.12960000       0.90860000       0.87370000
    22  H          0.87040000       0.09140000       0.12630000
    23  O          0.63091000       0.71708000       0.13765000
    24  O          0.36909000       0.28292000       0.86235000
