data_ZARHIL
_symmetry_space_group_name_H-M    'P1'
_symmetry_Int_Tables_number       1
loop_
_symmetry_equiv_pos_site_id
_symmetry_equiv_pos_as_xyz
1 x,y,z
_cell_length_a                   6.666615
_cell_length_b                   7.543717
_cell_length_c                   24.7816
_cell_angle_alpha                81.5264
_cell_angle_beta                 82.9694
_cell_angle_gamma                66.6324
loop_
_atom_site_label
_atom_site_type_symbol
_atom_site_fract_x
_atom_site_fract_y
_atom_site_fract_z
     1  Cl         0.33537130       0.76087120       0.41389300
     2  Cl         0.66462870       0.23912880       0.58610700
     3  O          0.50023000       0.81793000       0.59922800
     4  O          0.49977000       0.18207000       0.40077200
     5  O          0.78893000       0.65033000       0.64925700
     6  O          0.21107000       0.34967000       0.35074300
     7  O          0.32702000       0.71862000       0.98573700
     8  O          0.67298000       0.28138000       0.01426300
     9  N          0.55603000       0.67983000       0.88899800
    10  N          0.44397000       0.32017000       0.11100200
    11  N          0.63353000       0.71163000       0.93397700
    12  N          0.36647000       0.28837000       0.06602300
    13  H          0.75810000       0.72210000       0.93190000
    14  H          0.24190000       0.27790000       0.06810000
    15  N          0.75334000       0.80063000       0.12485800
    16  N          0.24666000       0.19937000       0.87514200
    17  C          0.79135000       0.79795000       0.50434120
    18  C          0.20865000       0.20205000       0.49565880
    19  H          0.64430000       0.83410000       0.49870000
    20  H          0.35570000       0.16590000       0.50130000
    21  C          0.93645000       0.80394000       0.46046110
    22  C          0.06355000       0.19606000       0.53953890
    23  H          0.88820000       0.84450000       0.42540000
    24  H          0.11180000       0.15550000       0.57460000
    25  C          0.15074000       0.75014000       0.46886100
    26  C          0.84926000       0.24986000       0.53113900
    27  C          0.22315000       0.69165000       0.52037110
    28  C          0.77685000       0.30835000       0.47962890
    29  H          0.37020000       0.65590000       0.52580000
    30  H          0.62980000       0.34410000       0.47420000
    31  C          0.07674000       0.68594000       0.56408110
    32  C          0.92326000       0.31406000       0.43591890
    33  H          0.12580000       0.64540000       0.59910000
    34  H          0.87420000       0.35460000       0.40090000
    35  C          0.85964000       0.73923000       0.55674100
    36  C          0.14036000       0.26077000       0.44325900
    37  C          0.69384000       0.74224000       0.60230110
    38  C          0.30616000       0.25776000       0.39769890
    39  C          0.65744000       0.63364000       0.69716100
    40  C          0.34256000       0.36636000       0.30283900
    41  C          0.49464000       0.56484000       0.69816110
    42  C          0.50536000       0.43516000       0.30183890
    43  H          0.46090000       0.53480000       0.66620000
    44  H          0.53910000       0.46520000       0.33380000
    45  C          0.38214000       0.54124000       0.74740110
    46  C          0.61786000       0.45876000       0.25259890
    47  H          0.27050000       0.49580000       0.74860000
    48  H          0.72950000       0.50420000       0.25140000
    49  C          0.43284000       0.58383000       0.79477100
    50  C          0.56716000       0.41617000       0.20522900
    51  H          0.35400000       0.56910000       0.82760000
    52  H          0.64600000       0.43090000       0.17240000
    53  C          0.60144000       0.64883000       0.79379900
    54  C          0.39856000       0.35117000       0.20620100
    55  C          0.71224000       0.67474000       0.74412100
    56  C          0.28776000       0.32526000       0.25587900
    57  H          0.82390000       0.72010000       0.74260000
    58  H          0.17610000       0.27990000       0.25740000
    59  C          0.66564000       0.68714000       0.84357100
    60  C          0.33436000       0.31286000       0.15642900
    61  H          0.78870000       0.71730000       0.84210000
    62  H          0.21130000       0.28270000       0.15790000
    63  C          0.50774000       0.72583000       0.98161900
    64  C          0.49226000       0.27417000       0.01838100
    65  C          0.60303000       0.75293000       0.03005900
    66  C          0.39697000       0.24707000       0.96994100
    67  C          0.81764000       0.72784000       0.03257100
    68  C          0.18236000       0.27216000       0.96742900
    69  H          0.91650000       0.69510000       0.00220000
    70  H          0.08350000       0.30490000      -0.00220000
    71  C          0.88464000       0.75164000       0.08031110
    72  C          0.11536000       0.24836000       0.91968890
    73  H          0.03090000       0.73210000       0.08140000
    74  H          0.96910000       0.26790000       0.91860000
    75  C          0.54764000       0.82514000       0.12229100
    76  C          0.45236000       0.17486000       0.87770900
    77  H          0.45210000       0.85900000       0.15320000
    78  H          0.54790000       0.14100000       0.84680000
    79  C          0.46674000       0.80324000       0.07641100
    80  C          0.53326000       0.19676000       0.92358900
    81  H          0.31990000       0.82250000       0.07670000
    82  H          0.68010000       0.17750000       0.92330000
    83  O          0.04393000      -0.01387000       0.19590900
    84  O          0.95607000       0.01387000       0.80409100
    85  O          0.83674000       0.82133000       0.22488700
    86  O          0.16326000       0.17867000       0.77511300
    87  H          0.82970000       0.82340000       0.19200000
    88  H          0.17030000       0.17660000       0.80800000
    89  C          0.95955000       0.91094000       0.23256110
    90  C          0.04045000       0.08906000       0.76743890
    91  C          0.98096000       0.91345000       0.29172120
    92  C          0.01904000       0.08655000       0.70827880
    93  H          0.11280000       0.93140000       0.29580000
    94  H          0.88720000       0.06860000       0.70420000
    95  H          0.98670000       0.79240000       0.31160000
    96  H          0.01330000       0.20760000       0.68840000
    97  H          0.85700000       0.01810000       0.30580000
    98  H          0.14300000       0.98190000       0.69420000
    99  O          0.02903000       0.78243000       0.90528800
   100  O          0.97097000       0.21757000       0.09471200
   101  H          0.13440000       0.76540000       0.92491000
   102  H          0.86560000       0.23460000       0.07509000
   103  H          0.01850000       0.86440000       0.87688000
   104  H          0.98150000       0.13560000       0.12312000
