data_ZARXUO
_symmetry_space_group_name_H-M    'P1'
_symmetry_Int_Tables_number       1
loop_
_symmetry_equiv_pos_site_id
_symmetry_equiv_pos_as_xyz
1 x,y,z
_cell_length_a                   10.02103
_cell_length_b                   16.19865
_cell_length_c                   18.32865
_cell_angle_alpha                76.4303
_cell_angle_beta                 87.4972
_cell_angle_gamma                74.0823
loop_
_atom_site_label
_atom_site_type_symbol
_atom_site_fract_x
_atom_site_fract_y
_atom_site_fract_z
     1  Cl         0.66160880       0.24213700       0.19654500
     2  Cl         0.33839120       0.75786300       0.80345500
     3  Cl         0.66952880       0.17079700       0.37299600
     4  Cl         0.33047120       0.82920300       0.62700400
     5  C          0.77786000       0.26302000       0.25307190
     6  C          0.22214000       0.73698000       0.74692810
     7  C          0.78006000       0.23202000       0.33020190
     8  C          0.21994000       0.76798000       0.66979810
     9  C          0.87246000       0.25033000       0.37392000
    10  C          0.12754000       0.74967000       0.62608000
    11  H          0.87540000       0.22930000       0.42580000
    12  H          0.12460000       0.77070000       0.57420000
    13  C          0.96055000       0.29973000       0.34043000
    14  C          0.03945000       0.70027000       0.65957000
    15  H          0.02160000       0.31280000       0.37000000
    16  H          0.97840000       0.68720000       0.63000000
    17  C          0.95866000       0.32983000       0.26343000
    18  C          0.04134000       0.67017000       0.73657000
    19  H          0.01910000       0.36250000       0.24120000
    20  H          0.98090000       0.63750000       0.75880000
    21  C          0.86726000       0.31172000       0.21932000
    22  C          0.13274000       0.68828000       0.78068000
    23  H          0.86570000       0.33200000       0.16740000
    24  H          0.13430000       0.66800000       0.83260000
    25  Cl         0.98044890       0.03686700       0.25934600
    26  Cl         0.01955110       0.96313300       0.74065400
    27  Cl         0.09546130       0.01271700       0.42306600
    28  Cl         0.90453870       0.98728300       0.57693400
    29  C          0.10834000       0.08482000       0.27442000
    30  C          0.89166000       0.91518000       0.72558000
    31  C          0.15854000       0.07482000       0.34622000
    32  C          0.84146000       0.92518000       0.65378000
    33  C          0.25824000       0.11482000       0.35772000
    34  C          0.74176000       0.88518000       0.64228000
    35  H          0.29040000       0.10850000       0.40600000
    36  H          0.70960000       0.89150000       0.59400000
    37  C          0.31074000       0.16492000       0.29612000
    38  C          0.68926000       0.83508000       0.70388000
    39  H          0.37820000       0.19200000       0.30310000
    40  H          0.62180000       0.80800000       0.69690000
    41  C          0.26105000       0.17352000       0.22492000
    42  C          0.73895000       0.82648000       0.77508000
    43  H          0.29590000       0.20660000       0.18390000
    44  H          0.70410000       0.79340000       0.81610000
    45  C          0.16124000       0.13412000       0.21352000
    46  C          0.83876000       0.86588000       0.78648000
    47  H          0.12910000       0.14040000       0.16510000
    48  H          0.87090000       0.85960000       0.83490000
    49  Cl         0.01631100       0.20706600       0.56822500
    50  Cl         0.98368900       0.79293400       0.43177500
    51  Cl         0.18938100       0.34214600       0.49653500
    52  Cl         0.81061900       0.65785400       0.50346500
    53  C          0.27044000       0.23032000       0.52588190
    54  C          0.72956000       0.76968000       0.47411810
    55  C          0.41334000       0.20043000       0.52052190
    56  C          0.58666000       0.79957000       0.47947810
    57  H          0.46430000       0.24030000       0.50060000
    58  H          0.53570000       0.75970000       0.49940000
    59  C          0.47994000       0.11213000       0.54452000
    60  C          0.52006000       0.88787000       0.45548000
    61  H          0.57570000       0.09220000       0.54080000
    62  H          0.42430000       0.90780000       0.45920000
    63  C          0.40274000       0.05233000       0.57452000
    64  C          0.59726000       0.94767000       0.42548000
    65  H          0.44740000       0.99260000       0.59070000
    66  H          0.55260000       0.00740000       0.40930000
    67  C          0.26044000       0.08162000       0.58011190
    68  C          0.73956000       0.91838000       0.41988810
    69  H          0.20940000       0.04170000       0.59970000
    70  H          0.79060000       0.95830000       0.40030000
    71  C          0.19404000       0.17072000       0.55639180
    72  C          0.80596000       0.82928000       0.44360820
    73  Cl         0.68403160       0.14869110       0.72424100
    74  Cl         0.31596840       0.85130890       0.27575900
    75  Cl         0.41390130       0.30677700       0.68058600
    76  Cl         0.58609870       0.69322300       0.31941400
    77  C          0.52095000       0.13093000       0.73952000
    78  C          0.47905000       0.86907000       0.26048000
    79  C          0.40015000       0.20083000       0.71972000
    80  C          0.59985000       0.79917000       0.28028000
    81  C          0.27126000       0.18613000       0.73112000
    82  C          0.72874000       0.81387000       0.26888000
    83  H          0.19130000       0.23240000       0.71810000
    84  H          0.80870000       0.76760000       0.28190000
    85  C          0.26226000       0.10083000       0.76262000
    86  C          0.73774000       0.89917000       0.23738000
    87  H          0.17550000       0.09030000       0.77060000
    88  H          0.82450000       0.90970000       0.22940000
    89  C          0.38417000       0.02963000       0.78282000
    90  C          0.61583000       0.97037000       0.21718000
    91  H          0.37840000       0.97260000       0.80380000
    92  H          0.62160000       0.02740000       0.19620000
    93  C          0.50997000       0.04783000       0.77043000
    94  C          0.49003000       0.95217000       0.22957000
    95  H          0.59050000       0.00200000       0.78330000
    96  H          0.40950000      -0.00200000       0.21670000
    97  S          0.12478800       0.45411500       0.90120600
    98  S          0.87521200       0.54588500       0.09879400
    99  S          0.10509800       0.32518500       0.04152400
   100  S          0.89490200       0.67481500       0.95847600
   101  S          0.25534800       0.42294500       0.13334400
   102  S          0.74465200       0.57705500       0.86665600
   103  S          0.27128800       0.55456400      -0.00523400
   104  S          0.72871200       0.44543600       0.00523400
   105  O          0.87647000       0.45023150       0.54523890
   106  O          0.12353000       0.54976850       0.45476110
   107  H          0.83740000       0.45120000       0.50650000
   108  H          0.16260000       0.54880000       0.49350000
   109  O          0.73057000       0.37118170       0.59821880
   110  O          0.26943000       0.62881830       0.40178120
   111  O          0.79418000       0.99251860       0.92803880
   112  O          0.20582000       0.00748140       0.07196120
   113  H          0.74260000       0.96010000       0.93380000
   114  H          0.25740000       0.03990000       0.06620000
   115  O          0.69758000       0.02320140       0.03498120
   116  O          0.30242000       0.97679860       0.96501880
   117  O          0.58583000       0.39198180       0.47858120
   118  O          0.41417000       0.60801820       0.52141880
   119  H          0.63160000       0.38690000       0.51620000
   120  H          0.36840000       0.61310000       0.48380000
   121  O          0.74253000       0.46037160       0.42185120
   122  O          0.25747000       0.53962840       0.57814880
   123  O          0.58553000       0.89311140       0.06818120
   124  O          0.41447000       0.10688860       0.93181880
   125  H          0.61370000       0.93720000       0.05490000
   126  H          0.38630000       0.06280000       0.94510000
   127  O          0.64452000       0.87842140       0.95133890
   128  O          0.35548000       0.12157860       0.04866110
   129  C          0.06183000       0.36461190       0.89361840
   130  C          0.93817000       0.63538810       0.10638160
   131  C          0.05553000       0.30455190       0.95822850
   132  C          0.94447000       0.69544810       0.04177150
   133  C          0.15853000       0.41887180      -0.00144150
   134  C          0.84147000       0.58112820       0.00144150
   135  C          0.21813000       0.46051190       0.03653150
   136  C          0.78187000       0.53948810       0.96346850
   137  C          0.36253000       0.49228180       0.13688160
   138  C          0.63747000       0.50771820       0.86311840
   139  C          0.36763000       0.55438180       0.07307150
   140  C          0.63237000       0.44561820       0.92692850
   141  C          0.00693000       0.37123190       0.81853840
   142  C         -0.00693000       0.62876810       0.18146160
   143  C          0.06873000       0.40792000       0.75355830
   144  C          0.93127000       0.59208000       0.24644170
   145  H          0.14850000       0.42540000       0.75790000
   146  H          0.85150000       0.57460000       0.24210000
   147  C          0.01354000       0.41872000       0.68292830
   148  C          0.98646000       0.58128000       0.31707170
   149  H          0.05520000       0.44400000       0.64040000
   150  H          0.94480000       0.55600000       0.35960000
   151  C          0.89487000       0.39160190       0.67571840
   152  C          0.10513000       0.60839810       0.32428160
   153  C          0.83427000       0.35342000       0.74001840
   154  C          0.16573000       0.64658000       0.25998160
   155  H          0.75730000       0.33330000       0.73550000
   156  H          0.24270000       0.66670000       0.26450000
   157  C          0.88737000       0.34509190       0.81034840
   158  C          0.11263000       0.65490810       0.18965160
   159  H          0.84340000       0.32190000       0.85280000
   160  H          0.15660000       0.67810000       0.14720000
   161  C          0.82727000       0.40362000       0.60243830
   162  C          0.17273000       0.59638000       0.39756170
   163  C         -0.00183000       0.22801180       0.96774840
   164  C          0.00183000       0.77198820       0.03225160
   165  C          0.02903000       0.17213190       0.91769840
   166  C          0.97097000       0.82786810       0.08230160
   167  H          0.09680000       0.17750000       0.88200000
   168  H          0.90320000       0.82250000       0.11800000
   169  C          0.95767000       0.10848190       0.92146840
   170  C          0.04233000       0.89151810       0.07853160
   171  H          0.97480000       0.07310000       0.88690000
   172  H          0.02520000       0.92690000       0.11310000
   173  C          0.86047000       0.09808190       0.97743840
   174  C          0.13953000       0.90191810       0.02256160
   175  C          0.83857000       0.14876190       0.03091160
   176  C          0.16143000       0.85123810       0.96908840
   177  H          0.77800000       0.13920000       0.06990000
   178  H          0.22200000       0.86080000       0.93010000
   179  C          0.90677000       0.21315190       0.02606160
   180  C          0.09323000       0.78684810       0.97393840
   181  H          0.89190000       0.24690000       0.06180000
   182  H          0.10810000       0.75310000       0.93820000
   183  C          0.77637000       0.03441190       0.98257840
   184  C          0.22363000       0.96558810       0.01742160
   185  C          0.43463000       0.47450180       0.20941160
   186  C          0.56537000       0.52549820       0.79058840
   187  C          0.37183000       0.44472000       0.27639160
   188  C          0.62817000       0.55528000       0.72360840
   189  H          0.28490000       0.43500000       0.27480000
   190  H          0.71510000       0.56500000       0.72520000
   191  C          0.43753000       0.42962000       0.34495170
   192  C          0.56247000       0.57038000       0.65504830
   193  H          0.39510000       0.40940000       0.38910000
   194  H          0.60490000       0.59060000       0.61090000
   195  C          0.56823000       0.44483190       0.34759160
   196  C          0.43177000       0.55516810       0.65240840
   197  C          0.63203000       0.47214190       0.28082170
   198  C          0.36797000       0.52785810       0.71917830
   199  H          0.71920000       0.48150000       0.28230000
   200  H          0.28080000       0.51850000       0.71770000
   201  C          0.56763000       0.48553190       0.21263160
   202  C          0.43237000       0.51446810       0.78736840
   203  H          0.61270000       0.50200000       0.16840000
   204  H          0.38730000       0.49800000       0.83160000
   205  C          0.63964000       0.43312000       0.41964170
   206  C          0.36036000       0.56688000       0.58035830
   207  C          0.43053000       0.62904180       0.06027160
   208  C          0.56947000       0.37095820       0.93972840
   209  C          0.47553000       0.66097190       0.98826840
   210  C          0.52447000       0.33902810       0.01173160
   211  H          0.47040000       0.63280000       0.95020000
   212  H          0.52960000       0.36720000       0.04980000
   213  C          0.52773000       0.73398190       0.97316840
   214  C          0.47227000       0.26601810       0.02683160
   215  H          0.55810000       0.75400000       0.92530000
   216  H          0.44190000       0.24600000       0.07470000
   217  C          0.53453000       0.77736190       0.02942160
   218  C          0.46547000       0.22263810       0.97057840
   219  C          0.48853000       0.74692000       0.10133160
   220  C          0.51147000       0.25308000       0.89866840
   221  H          0.49230000       0.77600000       0.13900000
   222  H          0.50770000       0.22400000       0.86100000
   223  C          0.43743000       0.67372190       0.11644160
   224  C          0.56257000       0.32627810       0.88355840
   225  H          0.40720000       0.65380000       0.16440000
   226  H          0.59280000       0.34620000       0.83560000
   227  C          0.59323000       0.85453190       0.01229170
   228  C          0.40677000       0.14546810       0.98770830
