data_ZATMAM
_symmetry_space_group_name_H-M    'P1'
_symmetry_Int_Tables_number       1
loop_
_symmetry_equiv_pos_site_id
_symmetry_equiv_pos_as_xyz
1 x,y,z
_cell_length_a                   5.71004
_cell_length_b                   9.58097
_cell_length_c                   9.86217
_cell_angle_alpha                74.6663
_cell_angle_beta                 79.1603
_cell_angle_gamma                79.2813
loop_
_atom_site_label
_atom_site_type_symbol
_atom_site_fract_x
_atom_site_fract_y
_atom_site_fract_z
     1  O          0.74186000       0.45943000       0.45753000
     2  H          0.79180000       0.50050000       0.37230000
     3  O          0.54835000       0.68653000       0.45613000
     4  N          0.32236000       0.61003000       0.72203000
     5  H          0.20370000       0.62950000       0.67650000
     6  H          0.38590000       0.68940000       0.71450000
     7  H          0.27480000       0.58150000       0.81230000
     8  C          0.60247000       0.55874000       0.51584000
     9  C          0.51447000       0.49794000       0.67284000
    10  H          0.65241700       0.48711600       0.72572100
    11  C          0.43518000       0.34644000       0.70414000
    12  H          0.56883300       0.28343300       0.65774100
    13  C          0.21218000       0.35254000       0.63694000
    14  H          0.24369100       0.39902100       0.53414500
    15  H          0.07569000       0.41464200       0.68018400
    16  C          0.14009000       0.20184000       0.65535000
    17  H          0.28280600       0.13376100       0.63066500
    18  H          0.02117000       0.20950900       0.59281400
    19  H          0.06976900       0.16548500       0.75437900
    20  C          0.40546000       0.27503000       0.86343000
    21  H          0.54796000       0.28143800       0.90219400
    22  H          0.38733100       0.17201900       0.87862000
    23  H          0.26199700       0.32575500       0.91158900
    24  O          0.82894000       0.94333000       0.49583000
    25  H          0.74710000       0.90450000       0.58340000
    26  O          0.02595000       0.71563000       0.50243000
    27  N          0.25506000       0.78623000       0.23693000
    28  H          0.32280000       0.81750000       0.15030000
    29  H          0.19690000       0.70440000       0.24850000
    30  H          0.36670000       0.76150000       0.29250000
    31  C          0.97303000       0.84134000       0.44054000
    32  C          0.06208000       0.89954000       0.28334000
    33  H          0.92481100       0.90985900       0.22987900
    34  C          0.14768000       0.04824000       0.24824000
    35  H          0.01094200       0.12077400       0.27505200
    36  H          0.19678000       0.07879400       0.14419100
    37  C          0.35808000       0.05084000       0.32274000
    38  H          0.31241000       0.01699700       0.42673100
    39  H          0.49843500       0.98231600       0.29247900
    40  C          0.42831000       0.20355000       0.28865000
    41  H          0.47920700       0.23575600       0.18608000
    42  H          0.56141000       0.20134600       0.33940000
    43  H          0.28965600       0.27148700       0.31849800
    44  O          0.62015000       0.53573000       0.13353000
    45  H          0.49140000       0.54450000       0.09450000
    46  O          0.83385000       0.52733000       0.91953000
    47  O          0.23595000       0.54593000       0.02022000
    48  O          0.01735000       0.55643000       0.22943000
    49  C          0.81793000       0.53434000       0.04194000
    50  C          0.04347000       0.54624000       0.10384000
    51  O          0.94725000       0.87453000       0.82413000
    52  H          0.06170000       0.88540000       0.86650000
    53  O          0.73366000       0.87994000       0.03853000
    54  O          0.32845000       0.87443000       0.93643000
    55  O          0.55055000       0.84923000       0.72973000
    56  C          0.74847000       0.87614000       0.91604000
    57  C          0.52407000       0.86614000       0.85354000
