data_ZATMEQ
_symmetry_space_group_name_H-M    'P1'
_symmetry_Int_Tables_number       1
loop_
_symmetry_equiv_pos_site_id
_symmetry_equiv_pos_as_xyz
1 x,y,z
_cell_length_a                   5.69373
_cell_length_b                   9.81045
_cell_length_c                   10.39505
_cell_angle_alpha                66.6092
_cell_angle_beta                 87.4452
_cell_angle_gamma                78.3292
loop_
_atom_site_label
_atom_site_type_symbol
_atom_site_fract_x
_atom_site_fract_y
_atom_site_fract_z
     1  S          0.69776120       0.23668800       0.84637800
     2  O          0.09663000       0.46302000       0.71702000
     3  H          0.02580000       0.54150000       0.68640000
     4  O          0.23903000       0.52216190       0.50066190
     5  N          0.49504000       0.24283000       0.56153000
     6  H          0.41670000       0.27940000       0.48740000
     7  H          0.60770000       0.30040000       0.54640000
     8  H          0.56070000       0.16050000       0.58340000
     9  C          0.21514000       0.43193000       0.61893000
    10  C          0.31804000       0.26323000       0.66533000
    11  H          0.18595600       0.21495300       0.66011500
    12  C          0.42615000       0.18293000       0.81503000
    13  H          0.46056300       0.07455900       0.83883200
    14  H          0.30628400       0.20261100       0.87811800
    15  C          0.59226000       0.40844000       0.87463000
    16  H          0.73061900       0.44320100       0.89205800
    17  H          0.51111800       0.48544500       0.78873800
    18  C          0.42587000       0.39695000      -0.00776000
    19  H          0.27574000       0.38022900       0.96894900
    20  H          0.39887500       0.48931500       0.00699600
    21  H          0.49596800       0.31369300       0.07623200
    22  H          0.31770000       0.84450000       0.66140000
    23  O          0.20983000       0.80338000       0.66656190
    24  O         -0.00597000       0.03234190       0.63872000
    25  O          0.58663000       0.92302810       0.65942000
    26  O          0.80113000       0.71712820       0.63897180
    27  C          0.00944000       0.90247000       0.65332000
    28  C          0.77964000       0.83997000       0.65212000
    29  H          0.67320000       0.15640000       0.31140000
    30  O          0.78697000       0.19352000       0.31192000
    31  O          0.00693000       0.96822000       0.33232000
    32  O          0.41153000       0.07325190       0.32922000
    33  O          0.19123000       0.28779180       0.33062000
    34  C         -0.01134000       0.09663000       0.32312000
    35  C          0.21524000       0.16053000       0.32713000
    36  H          0.95770000       0.44050000       0.28240000
    37  O          0.87873000       0.54082000       0.24482000
    38  O          0.75683000       0.48111190       0.46559190
    39  N          0.49964000       0.75842000       0.41222000
    40  H          0.58970000       0.73240000       0.49440000
    41  H          0.43070000       0.85140000       0.38940000
    42  H          0.39470000       0.70840000       0.42740000
    43  C          0.76774000       0.57173000       0.34643000
    44  C          0.65564000       0.73933000       0.29913000
    45  H          0.78593900       0.79353300       0.29129400
    46  C          0.51914000       0.80983000       0.15763000
    47  H          0.63117800       0.80454100       0.08582400
    48  H          0.45505000       0.91611600       0.13663500
    49  C          0.31345000       0.73483000       0.14953000
    50  H          0.37548300       0.62800300       0.17176400
    51  H          0.19763600       0.74256400       0.21886300
    52  C          0.18865000       0.80744000       0.00533000
    53  H          0.11529300       0.91096800      -0.01389100
    54  H          0.06753300       0.75310100       0.00257500
    55  H          0.30401800       0.80402800       0.93583300
