data_ZATPIX
_symmetry_space_group_name_H-M    'P1'
_symmetry_Int_Tables_number       1
loop_
_symmetry_equiv_pos_site_id
_symmetry_equiv_pos_as_xyz
1 x,y,z
_cell_length_a                   5.14514
_cell_length_b                   10.05557
_cell_length_c                   13.46061
_cell_angle_alpha                85.1842
_cell_angle_beta                 86.2782
_cell_angle_gamma                84.5852
loop_
_atom_site_label
_atom_site_type_symbol
_atom_site_fract_x
_atom_site_fract_y
_atom_site_fract_z
     1  S          0.29099600       0.37894300       0.82947200
     2  O          0.14072000       0.61182110       0.60632900
     3  O          0.73728000       0.54449110       0.62601900
     4  N          0.36873000       0.36164140       0.59555100
     5  H          0.44350000       0.27520000       0.60801600
     6  H          0.37740000       0.38020000       0.52961900
     7  H          0.47250000       0.41520000       0.62181600
     8  C         -0.01793000       0.52332160       0.62154110
     9  C          0.09363000       0.37645150       0.63716110
    10  H         -0.01059000       0.32230500       0.59811200
    11  C          0.07133000       0.32018160       0.74650120
    12  H          0.10167200       0.22132800       0.74832000
    13  H          0.88968000       0.34205700       0.77301200
    14  C          0.13113000       0.54150170       0.85815130
    15  H          0.13217800       0.60407600       0.79731300
    16  H          0.94696600       0.53226700       0.88183600
    17  C          0.27524000       0.59612170       0.93833130
    18  H          0.27135700       0.53438100      -0.00136200
    19  H          0.19032400       0.68394000       0.95384700
    20  H          0.45703100       0.60536200       0.91435900
    21  O          0.74692000       0.38586100       0.42241800
    22  O          0.14212000       0.46274110       0.39942900
    23  N          0.51453000       0.63795140       0.43546100
    24  C          0.89703000       0.47771150       0.40130110
    25  C          0.76293000       0.61810150       0.37305120
    26  H          0.88100500       0.68798500       0.38480700
    27  C          0.69503000       0.63084170       0.26312120
    28  H          0.60210400       0.55265800       0.25035700
    29  H          0.57340900       0.71216900       0.25122000
    30  C          0.93123000       0.63908170       0.18849130
    31  H          0.88095900       0.61604600       0.12270000
    32  H          0.07231900       0.57150100       0.21079400
    33  C          0.03794000       0.77740180       0.17597140
    34  H          0.06690700       0.80601700       0.24267200
    35  H          0.20888500       0.77040700       0.13769200
    36  C          0.85374000       0.88341180       0.12232150
    37  H          0.81962100       0.85429000       0.05708500
    38  H          0.93451100       0.96835100       0.11295900
    39  H          0.68858100       0.89573300       0.16243100
    40  H          0.44250000       0.71930000       0.42501600
    41  H          0.39650000       0.58820000       0.41881600
    42  H          0.53840000       0.61920000       0.50051900
    43  H          0.94550000       0.77480000       0.60551600
    44  H          0.96750000       0.91580000       0.61991600
    45  H          0.87940000       0.87880000       0.52741900
    46  S          0.77331600       0.86610700       0.82709200
    47  O          0.63892000       0.11058110       0.60701900
    48  O          0.23462000       0.04406110       0.62913900
    49  N          0.86613000       0.86143860       0.59240100
    50  C          0.47903000       0.02237160       0.62184110
    51  C          0.58963000       0.87497850       0.63239110
    52  H          0.48682100       0.82440700       0.59014000
    53  C          0.56043000       0.81194850       0.73974110
    54  H          0.59243800       0.71346600       0.73833800
    55  H          0.37710700       0.83188200       0.76512800
    56  C          0.61113000       0.02579170       0.86181120
    57  H          0.72403400       0.06647700       0.90547200
    58  H          0.58994600       0.08694300       0.80072800
    59  C          0.34454000       0.01352180       0.91568140
    60  H          0.22745700       0.97922800       0.87122600
    61  H          0.27119500       0.10177700       0.93499700
    62  H          0.36303900       0.95163800       0.97555800
    63  O          0.25152000       0.89025900       0.41652900
    64  O          0.65312000       0.95959890       0.39578800
    65  N          0.02133000       0.13685140       0.43588100
    66  H          0.94150000       0.21730000       0.42571600
    67  H          0.02840000       0.11520000       0.50251900
    68  H          0.91350000       0.08720000       0.41321600
    69  C          0.40843000       0.97986850       0.40070110
    70  C          0.28683000       0.12550150       0.38477110
    71  H          0.39844700       0.18529500       0.41549100
    72  C          0.26973000       0.17133160       0.27374120
    73  H          0.20850000       0.09841400       0.23870600
    74  H          0.13870000       0.24969800       0.26658000
    75  C          0.53143000       0.20920170       0.22403120
    76  H          0.59156400       0.28328500       0.25809200
    77  H          0.66348000       0.13136900       0.23180000
    78  C          0.51103000       0.25232190       0.11354130
    79  H          0.37293000       0.32738000       0.10605400
    80  H          0.45697200       0.17676800       0.07945100
    81  C          0.76514000       0.29619190       0.06231140
    82  H          0.81783200       0.37259200       0.09438700
    83  H          0.73890900       0.32241400      -0.00836100
    84  H          0.90218000       0.22179000       0.06792700
