data_ZAXNUJ
_symmetry_space_group_name_H-M    'P1'
_symmetry_Int_Tables_number       1
loop_
_symmetry_equiv_pos_site_id
_symmetry_equiv_pos_as_xyz
1 x,y,z
_cell_length_a                   8.39274
_cell_length_b                   9.57935
_cell_length_c                   10.01175
_cell_angle_alpha                82.7962
_cell_angle_beta                 68.2172
_cell_angle_gamma                89.9202
loop_
_atom_site_label
_atom_site_type_symbol
_atom_site_fract_x
_atom_site_fract_y
_atom_site_fract_z
     1  Cl         0.21402400       0.31450400       0.95689400
     2  Cl         0.78597600       0.68549600       0.04310600
     3  O          0.84265130       0.10158130       0.43675120
     4  O          0.15734870       0.89841870       0.56324880
     5  O          0.73348160       0.14632140       0.91003120
     6  O          0.26651840       0.85367860       0.08996880
     7  N          0.70075140       0.14001130       0.40117120
     8  N          0.29924860       0.85998870       0.59882880
     9  N          0.58108120       0.23915100       0.19004100
    10  N          0.41891880       0.76084900       0.80995900
    11  C          0.43585150       0.27483130       0.31767130
    12  C          0.56414850       0.72516870       0.68232870
    13  C          0.28473160       0.31170160       0.29975150
    14  C          0.71526840       0.68829840       0.70024850
    15  H          0.27650000       0.31260000       0.20950000
    16  H          0.72350000       0.68740000       0.79050000
    17  C          0.14569190       0.34732000       0.41599180
    18  C          0.85430810       0.65268000       0.58400820
    19  H          0.04370000       0.37100000       0.40430000
    20  H          0.95630000       0.62900000       0.59570000
    21  C          0.15952000       0.34722000       0.54779180
    22  C          0.84048000       0.65278000       0.45220820
    23  H          0.06720000       0.37290000       0.62540000
    24  H          0.93280000       0.62710000       0.37460000
    25  C          0.31012000       0.30889180       0.56665150
    26  C          0.68988000       0.69110820       0.43334850
    27  H          0.31690000       0.30940000       0.65720000
    28  H          0.68310000       0.69060000       0.34280000
    29  C          0.45162160       0.26973140       0.45316130
    30  C          0.54837840       0.73026860       0.54683870
    31  C          0.60640160       0.22379140       0.48326130
    32  C          0.39359840       0.77620860       0.51673870
    33  C          0.64192000       0.27732000       0.60451160
    34  C          0.35808000       0.72268000       0.39548840
    35  H          0.74520000       0.23860000       0.61000000
    36  H          0.25480000       0.76140000       0.39000000
    37  H          0.54760000       0.24920000       0.69450000
    38  H          0.45240000       0.75080000       0.30550000
    39  H          0.65570000       0.37820000       0.58660000
    40  H          0.34430000       0.62180000       0.41340000
    41  C          0.95932000       0.03232190       0.32262000
    42  C          0.04068000       0.96767810       0.67738000
    43  H          0.05710000       0.00550000       0.34600000
    44  H          0.94290000      -0.00550000       0.65400000
    45  H         -0.00350000       0.09530000       0.23310000
    46  H          0.00350000       0.90470000       0.76690000
    47  H          0.90230000       0.94980000       0.31240000
    48  H          0.09770000       0.05020000       0.68760000
    49  C          0.56692000       0.08861150       0.16615170
    50  C          0.43308000       0.91138850       0.83384830
    51  H          0.46280000       0.07240000       0.14850000
    52  H          0.53720000       0.92760000       0.85150000
    53  H          0.56100000       0.02600000       0.25210000
    54  H          0.43900000       0.97400000       0.74790000
    55  C          0.72093000       0.05838190       0.03792000
    56  C          0.27907000       0.94161810       0.96208000
    57  H          0.82410000       0.07230000       0.05760000
    58  H          0.17590000       0.92770000       0.94240000
    59  H          0.71260000       0.96070000       0.02380000
    60  H          0.28740000       0.03930000       0.97620000
    61  C          0.75562000       0.28772000       0.92832160
    62  C          0.24438000       0.71228000       0.07167840
    63  H          0.77020000       0.34820000       0.83890000
    64  H          0.22980000       0.65180000       0.16110000
    65  H          0.85910000       0.29860000       0.94850000
    66  H          0.14090000       0.70140000       0.05150000
    67  C          0.60461160       0.33293140       0.05045130
    68  C          0.39538840       0.66706860       0.94954870
    69  H          0.50150000       0.32670000       0.02890000
    70  H          0.49850000       0.67330000       0.97110000
    71  H          0.62420000       0.43010000       0.06080000
    72  H          0.37580000       0.56990000       0.93920000
    73  O          0.12755130       0.59891120       0.80285110
    74  O          0.87244870       0.40108880       0.19714890
    75  H          0.13620000       0.52190000       0.84510000
    76  H          0.86380000       0.47810000       0.15490000
    77  H          0.03280000       0.62220000       0.87100000
    78  H          0.96720000       0.37780000       0.12900000
    79  H          0.00100000       0.51910000       0.79500000
    80  H         -0.00100000       0.48090000       0.20500000
