data_ZAYHAK
_symmetry_space_group_name_H-M    'P1'
_symmetry_Int_Tables_number       1
loop_
_symmetry_equiv_pos_site_id
_symmetry_equiv_pos_as_xyz
1 x,y,z
_cell_length_a                   15.85226
_cell_length_b                   12.91965
_cell_length_c                   14.56055
_cell_angle_alpha                90.0
_cell_angle_beta                 95.99001
_cell_angle_gamma                90.0
loop_
_atom_site_label
_atom_site_type_symbol
_atom_site_fract_x
_atom_site_fract_y
_atom_site_fract_z
     1  N          0.01670110       0.75025160       0.56334120
     2  N          0.98329890       0.25025160       0.93665880
     3  N          0.98329890       0.24974840       0.43665880
     4  N          0.01670110       0.74974840       0.06334120
     5  C          0.03691140       0.66182000       0.52633160
     6  C          0.96308860       0.16182000       0.97366840
     7  C          0.96308860       0.33818000       0.47366840
     8  C          0.03691140       0.83818000       0.02633160
     9  H          0.02520000       0.59930000       0.55690000
    10  H          0.97480000       0.09930000       0.94310000
    11  H          0.97480000       0.40070000       0.44310000
    12  H          0.02520000       0.90070000       0.05690000
    13  C          0.07405140       0.65612000       0.44593160
    14  C          0.92594860       0.15612000       0.05406840
    15  C          0.92594860       0.34388000       0.55406840
    16  C          0.07405140       0.84388000       0.94593160
    17  H          0.08700000       0.59050000       0.42150000
    18  H          0.91300000       0.09050000       0.07850000
    19  H          0.91300000       0.40950000       0.57850000
    20  H          0.08700000       0.90950000       0.92150000
    21  C          0.09247130       0.74402000       0.40076150
    22  C          0.90752870       0.24402000       0.09923850
    23  C          0.90752870       0.25598000       0.59923850
    24  C          0.09247130       0.75598000       0.90076150
    25  H          0.11820000       0.74090000       0.34470000
    26  H          0.88180000       0.24090000       0.15530000
    27  H          0.88180000       0.25910000       0.65530000
    28  H          0.11820000       0.75910000       0.84470000
    29  C          0.07291140       0.83802000       0.43826170
    30  C          0.92708860       0.33802000       0.06173830
    31  C          0.92708860       0.16198000       0.56173830
    32  C          0.07291140       0.66198000       0.93826170
    33  H          0.08510000       0.90140000       0.40930000
    34  H          0.91490000       0.40140000       0.09070000
    35  H          0.91490000       0.09860000       0.59070000
    36  H          0.08510000       0.59860000       0.90930000
    37  C          0.03407140       0.83652000       0.52143160
    38  C          0.96592860       0.33652000       0.97856840
    39  C          0.96592860       0.16348000       0.47856840
    40  C          0.03407140       0.66348000       0.02143160
    41  H          0.02000000       0.90050000       0.54810000
    42  H          0.98000000       0.40050000       0.95190000
    43  H          0.98000000       0.09950000       0.45190000
    44  H          0.02000000       0.59950000       0.04810000
    45  O          0.36443800       0.41155100       0.32739900
    46  O          0.63556200       0.91155100       0.17260100
    47  O          0.63556200       0.58844900       0.67260100
    48  O          0.36443800       0.08844900       0.82739900
    49  O          0.11973800       0.33591100       0.13904800
    50  O          0.88026200       0.83591100       0.36095200
    51  O          0.88026200       0.66408900       0.86095200
    52  O          0.11973800       0.16408900       0.63904800
    53  O          0.19212800       0.29756110       0.98018200
    54  O          0.80787200       0.79756110       0.51981800
    55  O          0.80787200       0.70243890       0.01981800
    56  O          0.19212800       0.20243890       0.48018200
    57  O          0.42840800       0.41726900       0.16109800
    58  O          0.57159200       0.91726900       0.33890200
    59  O          0.57159200       0.58273100       0.83890200
    60  O          0.42840800       0.08273100       0.66109800
    61  O          0.55939140       0.15428140       0.08005120
    62  O          0.44060860       0.65428140       0.41994880
    63  O          0.44060860       0.84571860       0.91994880
    64  O          0.55939140       0.34571860       0.58005120
    65  H          0.58120000       0.15830000       0.03000000
    66  H          0.41880000       0.65830000       0.47000000
    67  H          0.41880000       0.84170000       0.97000000
    68  H          0.58120000       0.34170000       0.53000000
    69  O          0.51312900       0.31027110       0.03979100
    70  O          0.48687100       0.81027110       0.46020900
    71  O          0.48687100       0.68972890       0.96020900
    72  O          0.51312900       0.18972890       0.53979100
    73  O          0.06530900       0.25134120       0.29076900
    74  O          0.93469100       0.75134120       0.20923100
    75  O          0.93469100       0.74865880       0.70923100
    76  O          0.06530900       0.24865880       0.79076900
    77  H          0.07730000       0.29420000       0.25070000
    78  H          0.92270000       0.79420000       0.24930000
    79  H          0.92270000       0.70580000       0.74930000
    80  H          0.07730000       0.20580000       0.75070000
    81  O          0.06988900       0.08142120       0.30799100
    82  O          0.93011100       0.58142120       0.19200900
    83  O          0.93011100       0.91857880       0.69200900
    84  O          0.06988900       0.41857880       0.80799100
    85  N          0.17585110       0.56054130       0.27454120
    86  N          0.82414890       0.06054130       0.22545880
    87  N          0.82414890       0.43945870       0.72545880
    88  N          0.17585110       0.93945870       0.77454120
    89  N          0.24071900       0.36715110       0.23804900
    90  N          0.75928100       0.86715110       0.26195100
    91  N          0.75928100       0.63284890       0.76195100
    92  N          0.24071900       0.13284890       0.73804900
    93  N          0.31180110       0.52991130       0.96190890
    94  N          0.68819890       0.02991130       0.53809110
    95  N          0.68819890       0.47008870       0.03809110
    96  N          0.31180110       0.97008870       0.46190890
    97  N          0.31402900       0.35116110       0.06802900
    98  N          0.68597100       0.85116110       0.43197100
    99  N          0.68597100       0.64883890       0.93197100
   100  N          0.31402900       0.14883890       0.56802900
   101  C          0.16539110       0.39769140       0.20175110
   102  C          0.83460890       0.89769140       0.29824890
   103  C          0.83460890       0.60230860       0.79824890
   104  C          0.16539110       0.10230860       0.70175110
   105  C          0.13070130       0.49265150       0.22087130
   106  C          0.86929870      -0.00734850       0.27912870
   107  C          0.86929870       0.50734850       0.77912870
   108  C          0.13070130       0.00734850       0.72087130
   109  H          0.07470000       0.50940000       0.19570000
   110  H          0.92530000       0.00940000       0.30430000
   111  H          0.92530000       0.49060000       0.80430000
   112  H          0.07470000      -0.00940000       0.69570000
   113  C          0.25417130       0.53315150       0.30839130
   114  C          0.74582870       0.03315150       0.19160870
   115  C          0.74582870       0.46684850       0.69160870
   116  C          0.25417130       0.96684850       0.80839130
   117  H          0.28880000       0.58030000       0.34550000
   118  H          0.71120000       0.08030000       0.15450000
   119  H          0.71120000       0.41970000       0.65450000
   120  H          0.28880000       0.91970000       0.84550000
   121  C          0.28478110       0.43666140       0.28954110
   122  C          0.71521890       0.93666140       0.21045890
   123  C          0.71521890       0.56333860       0.71045890
   124  C          0.28478110       0.06333860       0.78954110
   125  C          0.25456110       0.36935140      -0.00084110
   126  C          0.74543890       0.86935140       0.50084110
   127  C          0.74543890       0.63064860       0.00084110
   128  C          0.25456110       0.13064860       0.49915890
   129  C          0.25283120       0.45701150       0.94515870
   130  C          0.74716880       0.95701150       0.55484130
   131  C          0.74716880       0.54298850       0.05484130
   132  C          0.25283120       0.04298850       0.44515870
   133  H          0.20930000       0.46550000       0.89570000
   134  H          0.79070000       0.96550000       0.60430000
   135  H          0.79070000       0.53450000       0.10430000
   136  H          0.20930000       0.03450000       0.39570000
   137  C          0.37072120       0.51517150       0.03284130
   138  C          0.62927880       0.01517150       0.46715870
   139  C          0.62927880       0.48482850       0.96715870
   140  C          0.37072120       0.98482850       0.53284130
   141  H          0.41320000       0.56610000       0.04740000
   142  H          0.58680000       0.06610000       0.45260000
   143  H          0.58680000       0.43390000       0.95260000
   144  H          0.41320000       0.93390000       0.54740000
   145  C          0.37022110       0.42578130       0.08540110
   146  C          0.62977890       0.92578130       0.41459890
   147  C          0.62977890       0.57421870       0.91459890
   148  C          0.37022110       0.07421870       0.58540110
   149  C          0.43340100       0.32385130       0.20969110
   150  C          0.56659900       0.82385130       0.29030890
   151  C          0.56659900       0.67614870       0.79030890
   152  C          0.43340100       0.17614870       0.70969110
   153  C          0.40077110       0.32213140       0.29396120
   154  C          0.59922890       0.82213140       0.20603880
   155  C          0.59922890       0.67786860       0.70603880
   156  C          0.40077110       0.17786860       0.79396120
   157  C          0.40893120       0.23624170       0.34990130
   158  C          0.59106880       0.73624170       0.15009870
   159  C          0.59106880       0.76375830       0.65009870
   160  C          0.40893120       0.26375830       0.84990130
   161  H          0.38570000       0.23600000       0.40750000
   162  H          0.61430000       0.73600000       0.09250000
   163  H          0.61430000       0.76400000       0.59250000
   164  H          0.38570000       0.26400000       0.90750000
   165  C          0.45120120       0.15033160       0.32161140
   166  C          0.54879880       0.65033160       0.17838860
   167  C          0.54879880       0.84966840       0.67838860
   168  C          0.45120120       0.34966840       0.82161140
   169  H          0.45650000       0.09020000       0.35940000
   170  H          0.54350000       0.59020000       0.14060000
   171  H          0.54350000       0.90980000       0.64060000
   172  H          0.45650000       0.40980000       0.85940000
   173  C          0.48564120       0.15179150       0.23883130
   174  C          0.51435880       0.65179150       0.26116870
   175  C          0.51435880       0.84820850       0.76116870
   176  C          0.48564120       0.34820850       0.73883130
   177  H          0.51560000       0.09290000       0.22050000
   178  H          0.48440000       0.59290000       0.27950000
   179  H          0.48440000       0.90710000       0.77950000
   180  H          0.51560000       0.40710000       0.72050000
   181  C          0.47744110       0.23842140       0.18115120
   182  C          0.52255890       0.73842140       0.31884880
   183  C          0.52255890       0.76157860       0.81884880
   184  C          0.47744110       0.26157860       0.68115120
   185  C          0.18560110       0.21835140       0.04369120
   186  C          0.81439890       0.71835140       0.45630880
   187  C          0.81439890       0.78164860       0.95630880
   188  C          0.18560110       0.28164860       0.54369120
   189  C          0.14816100       0.23619140       0.12435120
   190  C          0.85183900       0.73619140       0.37564880
   191  C          0.85183900       0.76380860       0.87564880
   192  C          0.14816100       0.26380860       0.62435120
   193  C          0.13278110       0.15305140       0.18205120
   194  C          0.86721890       0.65305140       0.31794880
   195  C          0.86721890       0.84694860       0.81794880
   196  C          0.13278110       0.34694860       0.68205120
   197  C          0.15905120       0.05485150       0.15739140
   198  C          0.84094880       0.55485150       0.34260860
   199  C          0.84094880       0.94514850       0.84260860
   200  C          0.15905120       0.44514850       0.65739140
   201  H          0.14990000      -0.00240000       0.19610000
   202  H          0.85010000       0.49760000       0.30390000
   203  H          0.85010000       0.00240000       0.80390000
   204  H          0.14990000       0.50240000       0.69610000
   205  C          0.19772130       0.03866160       0.07861150
   206  C          0.80227870       0.53866160       0.42138850
   207  C          0.80227870       0.96133840       0.92138850
   208  C          0.19772130       0.46133840       0.57861150
   209  H          0.21580000       0.97110000       0.06380000
   210  H          0.78420000       0.47110000       0.43620000
   211  H          0.78420000       0.02890000       0.93620000
   212  H          0.21580000       0.52890000       0.56380000
   213  C          0.21029130       0.12045160       0.02103140
   214  C          0.78970870       0.62045160       0.47896860
   215  C          0.78970870       0.87954840       0.97896860
   216  C          0.21029130       0.37954840       0.52103140
   217  H          0.23600000       0.10930000       0.96580000
   218  H          0.76400000       0.60930000       0.53420000
   219  H          0.76400000       0.89070000       0.03420000
   220  H          0.23600000       0.39070000       0.46580000
   221  C          0.51805120       0.23962150       0.09323130
   222  C          0.48194880       0.73962150       0.40676870
   223  C          0.48194880       0.76037850       0.90676870
   224  C          0.51805120       0.26037850       0.59323130
   225  C          0.08660110       0.15888160       0.26645130
   226  C          0.91339890       0.65888160       0.23354870
   227  C          0.91339890       0.84111840       0.73354870
   228  C          0.08660110       0.34111840       0.76645130
   229  N          0.36548130       0.84110850       0.07319130
   230  N          0.63451870       0.34110850       0.42680870
   231  N          0.63451870       0.15889150       0.92680870
   232  N          0.36548130       0.65889150       0.57319130
   233  C          0.38841140       0.89896810       0.14588160
   234  C          0.61158860       0.39896810       0.35411840
   235  C          0.61158860       0.10103190       0.85411840
   236  C          0.38841140       0.60103190       0.64588160
   237  H          0.43200000       0.94860000       0.14130000
   238  H          0.56800000       0.44860000       0.35870000
   239  H          0.56800000       0.05140000       0.85870000
   240  H          0.43200000       0.55140000       0.64130000
   241  C          0.35360160       0.89198000       0.22693160
   242  C          0.64639840       0.39198000       0.27306840
   243  C          0.64639840       0.10802000       0.77306840
   244  C          0.35360160       0.60802000       0.72693160
   245  H          0.37300000       0.93550000       0.27740000
   246  H          0.62700000       0.43550000       0.22260000
   247  H          0.62700000       0.06450000       0.72260000
   248  H          0.37300000       0.56450000       0.77740000
   249  C          0.29168190       0.82317000       0.23512000
   250  C          0.70831810       0.32317000       0.26488000
   251  C          0.70831810       0.17683000       0.76488000
   252  C          0.29168190       0.67683000       0.73512000
   253  H          0.26660000       0.81700000       0.29140000
   254  H          0.73340000       0.31700000       0.20860000
   255  H          0.73340000       0.18300000       0.70860000
   256  H          0.26660000       0.68300000       0.79140000
   257  C          0.26498190       0.76158000       0.16033000
   258  C          0.73501810       0.26158000       0.33967000
   259  C          0.73501810       0.23842000       0.83967000
   260  C          0.26498190       0.73842000       0.66033000
   261  H          0.22050000       0.71280000       0.16350000
   262  H          0.77950000       0.21280000       0.33650000
   263  H          0.77950000       0.28720000       0.83650000
   264  H          0.22050000       0.78720000       0.66350000
   265  C          0.30472000       0.77264810       0.08002000
   266  C          0.69528000       0.27264810       0.41998000
   267  C          0.69528000       0.22735190       0.91998000
   268  C          0.30472000       0.72735190       0.58002000
   269  H          0.28750000       0.72960000       0.02860000
   270  H          0.71250000       0.22960000       0.47140000
   271  H          0.71250000       0.27040000       0.97140000
   272  H          0.28750000       0.77040000       0.52860000
