data_ZAYQEV
_symmetry_space_group_name_H-M    'P1'
_symmetry_Int_Tables_number       1
loop_
_symmetry_equiv_pos_site_id
_symmetry_equiv_pos_as_xyz
1 x,y,z
_cell_length_a                   19.9509
_cell_length_b                   7.0483
_cell_length_c                   7.65
_cell_angle_alpha                81.263
_cell_angle_beta                 86.343
_cell_angle_gamma                88.784
loop_
_atom_site_label
_atom_site_type_symbol
_atom_site_fract_x
_atom_site_fract_y
_atom_site_fract_z
     1  C          0.89492000       0.13767000       0.22746000
     2  C          0.10508000       0.86233000       0.77254000
     3  C          0.95882000       0.20388000       0.23826000
     4  C          0.04118000       0.79612000       0.76174000
     5  C         -0.00068000       0.25587000       0.08746000
     6  C          0.00068000       0.74413000       0.91254000
     7  C          0.97672000       0.23827000       0.92446000
     8  C          0.02328000       0.76173000       0.07554000
     9  C          0.91192000       0.16946000       0.91455000
    10  C          0.08808000       0.83054000       0.08545000
    11  S          0.89091000       0.14742000       0.69932000
    12  S          0.10909000       0.85258000       0.30068000
    13  C          0.80972000       0.06406000       0.73575000
    14  C          0.19028000       0.93594000       0.26425000
    15  N          0.77512000       0.03365000       0.60265000
    16  N          0.22488000       0.96635000       0.39735000
    17  C          0.71252000       0.97494000       0.68245000
    18  C          0.28748000       0.02506000       0.31755000
    19  C          0.65602000       0.92783000       0.60146000
    20  C          0.34398000       0.07217000       0.39854000
    21  C          0.59902000       0.87603000       0.70907000
    22  C          0.40098000       0.12397000       0.29093000
    23  C          0.59882000       0.86943000       0.89167000
    24  C          0.40118000       0.13057000       0.10833000
    25  C          0.65462000       0.91573000       0.97446000
    26  C          0.34538000       0.08427000       0.02554000
    27  C          0.71092000       0.97164000       0.86525000
    28  C          0.28908000       0.02836000       0.13475000
    29  N          0.77562000       0.03055000       0.89864000
    30  N          0.22438000       0.96945000       0.10136000
    31  C          0.79832000       0.05756000       0.06455000
    32  C          0.20168000       0.94244000       0.93545000
    33  C          0.86912000       0.12086000       0.06515000
    34  C          0.13088000       0.87914000       0.93485000
    35  N          0.75662000       0.02656000       0.19465000
    36  N          0.24338000       0.97344000       0.80535000
    37  H          0.86498000       0.09459000       0.33917000
    38  H          0.13502000       0.90541000       0.66083000
    39  H          0.97770000       0.21100000       0.35539000
    40  H          0.02230000       0.78900000       0.64461000
    41  H          0.04809000       0.31043000       0.09106000
    42  H          0.95191000       0.68957000       0.90894000
    43  H          0.00380000       0.28577000       0.80370000
    44  H         -0.00380000       0.71423000       0.19630000
    45  H          0.65687000       0.92593000       0.47087000
    46  H          0.34313000       0.07407000       0.52913000
    47  H          0.55549000       0.84504000       0.64685000
    48  H          0.44451000       0.15496000       0.35315000
    49  H          0.55457000       0.83279000       0.97016000
    50  H          0.44543000       0.16721000       0.02984000
    51  H          0.65342000       0.91705000       0.10496000
    52  H          0.34658000       0.08295000       0.89504000
    53  H          0.77422000       0.05747000       0.29580000
    54  H          0.22578000       0.94253000       0.70420000
    55  C          0.36282000       0.59786000       0.31856000
    56  C          0.63718000       0.40214000       0.68144000
    57  C          0.30342000       0.54657000       0.23786000
    58  C          0.69658000       0.45343000       0.76214000
    59  C          0.24702000       0.49186000       0.33766000
    60  C          0.75298000       0.50814000       0.66234000
    61  C          0.24402000       0.48456000       0.52686000
    62  C          0.75598000       0.51544000       0.47314000
    63  C          0.30332000       0.53907000       0.60526000
    64  C          0.69668000       0.46093000       0.39474000
    65  C          0.35912000       0.59217000       0.50786000
    66  C          0.64088000       0.40783000       0.49214000
    67  C          0.42092000       0.64616000       0.21766000
    68  C          0.57908000       0.35384000       0.78234000
    69  C          0.18692000       0.42546000       0.62836000
    70  C          0.81308000       0.57454000       0.37164000
    71  C          0.12773000       0.36857000       0.55246000
    72  C          0.87227000       0.63143000       0.44754000
    73  C          0.18242000       0.41747000       0.81777000
    74  C          0.81758000       0.58253000       0.18223000
    75  C          0.48032000       0.70017000       0.29456000
    76  C          0.51968000       0.29983000       0.70544000
    77  C          0.42642000       0.64967000       0.02997000
    78  C          0.57358000       0.35033000       0.97003000
    79  N          0.52792000       0.74317000       0.35166000
    80  N          0.47208000       0.25683000       0.64834000
    81  N          0.43122000       0.65017000       0.88074000
    82  N          0.56878000       0.34983000       0.11926000
    83  N          0.08022000       0.32447000       0.49496000
    84  N          0.91978000       0.67553000       0.50504000
    85  N          0.17842000       0.40966000       0.96686000
    86  N          0.82158000       0.59034000       0.03314000
    87  H          0.30189000       0.55585000       0.10334000
    88  H          0.69811000       0.44415000       0.89666000
    89  H          0.20583000       0.44655000       0.27964000
    90  H          0.79417000       0.55345000       0.72036000
    91  H          0.30290000       0.53474000       0.73235000
    92  H          0.69710000       0.46526000       0.26765000
    93  H          0.39799000       0.63482000       0.56808000
    94  H          0.60201000       0.36518000       0.43192000
