data_ZEBDOD
_symmetry_space_group_name_H-M    'P1'
_symmetry_Int_Tables_number       1
loop_
_symmetry_equiv_pos_site_id
_symmetry_equiv_pos_as_xyz
1 x,y,z
_cell_length_a                   7.13703
_cell_length_b                   30.015218
_cell_length_c                   10.98605
_cell_angle_alpha                90.0
_cell_angle_beta                 95.7495
_cell_angle_gamma                90.0
loop_
_atom_site_label
_atom_site_type_symbol
_atom_site_fract_x
_atom_site_fract_y
_atom_site_fract_z
     1  S          0.13720800       0.08351200       0.83743400
     2  S          0.36279200       0.58351200       0.66256600
     3  S          0.86279200       0.91648800       0.16256600
     4  S          0.63720800       0.41648800       0.33743400
     5  S          0.22180800       0.01016200       0.13377400
     6  S          0.27819200       0.51016200       0.36622600
     7  S          0.77819200       0.98983800       0.86622600
     8  S          0.72180800       0.48983800       0.63377400
     9  O          0.02513000       0.18454500       0.04214120
    10  O          0.47487000       0.68454500       0.45785880
    11  O          0.97487000       0.81545500       0.95785880
    12  O          0.52513000       0.31545500       0.54214120
    13  O          0.08363000       0.11371500       0.09572140
    14  O          0.41637000       0.61371500       0.40427860
    15  O          0.91637000       0.88628500       0.90427860
    16  O          0.58363000       0.38628500       0.59572140
    17  O          0.38903000       0.91147500       0.93882880
    18  O          0.11097000       0.41147500       0.56117120
    19  O          0.61097000       0.08852500       0.06117120
    20  O          0.88903000       0.58852500       0.43882880
    21  O          0.26953000       0.97756500       0.87488870
    22  O          0.23047000       0.47756500       0.62511130
    23  O          0.73047000       0.02243500       0.12511130
    24  O          0.76953000       0.52243500       0.37488870
    25  N          0.05393000       0.14508500       0.68005130
    26  N          0.44607000       0.64508500       0.81994870
    27  N          0.94607000       0.85491500       0.31994870
    28  N          0.55393000       0.35491500       0.18005130
    29  N          0.32213000       0.95072500       0.29449130
    30  N          0.17787000       0.45072500       0.20550870
    31  N          0.67787000       0.04927500       0.70550870
    32  N          0.82213000       0.54927500       0.79449130
    33  C          0.10943000       0.10317600       0.68920150
    34  C          0.39057000       0.60317600       0.81079850
    35  C          0.89057000       0.89682400       0.31079850
    36  C          0.60943000       0.39682400       0.18920150
    37  C          0.06903000       0.13472600       0.88819160
    38  C          0.43097000       0.63472600       0.61180840
    39  C          0.93097000       0.86527400       0.11180840
    40  C          0.56903000       0.36527400       0.38819160
    41  C          0.03173000       0.16273600       0.79252170
    42  C          0.46827000       0.66273600       0.70747830
    43  C          0.96827000       0.83726400       0.20747830
    44  C          0.53173000       0.33726400       0.29252170
    45  C          0.06043000       0.14242600       0.02004170
    46  C          0.43957000       0.64242600       0.47995830
    47  C          0.93957000       0.85757400       0.97995830
    48  C          0.56043000       0.35757400       0.52004170
    49  C          0.01595000       0.19714900       0.16902000
    50  C          0.48405000       0.69714900       0.33098000
    51  C         -0.01595000       0.80285100       0.83098000
    52  C          0.51595000       0.30285100       0.66902000
    53  C          0.25493000       0.99173400       0.28325160
    54  C          0.24507000       0.49173400       0.21674840
    55  C          0.74507000       0.00826600       0.71674840
    56  C          0.75493000       0.50826600       0.78325160
    57  C          0.30533000       0.96003400       0.08596160
    58  C          0.19467000       0.46003400       0.41403840
    59  C          0.69467000       0.03996600       0.91403840
    60  C          0.80533000       0.53996600       0.58596160
    61  C          0.35043000       0.93292300       0.18325170
    62  C          0.14957000       0.43292300       0.31674830
    63  C          0.64957000       0.06707700       0.81674830
    64  C          0.85043000       0.56707700       0.68325170
    65  C          0.31833000       0.95141400       0.95508830
    66  C          0.18167000       0.45141400       0.54491170
    67  C          0.68167000       0.04858600       0.04491170
    68  C          0.81833000       0.54858600       0.45508830
    69  C          0.40315000       0.89787100       0.81368000
    70  C          0.09685000       0.39787100       0.68632000
    71  C          0.59685000       0.10212900       0.18632000
    72  C          0.90315000       0.60212900       0.31368000
    73  C          0.14383000       0.07445600       0.58495150
    74  C          0.35617000       0.57445600       0.91504850
    75  C          0.85617000       0.92554400       0.41504850
    76  C          0.64383000       0.42554400       0.08495150
    77  C          0.21903000       0.03193600       0.60435170
    78  C          0.28097000       0.53193600       0.89564830
    79  C          0.78097000       0.96806400       0.39564830
    80  C          0.71903000       0.46806400       0.10435170
    81  C          0.25483000       0.00507600       0.50697160
    82  C          0.24517000       0.50507600      -0.00697160
    83  C          0.74517000       0.99492400       0.49302840
    84  C          0.75483000       0.49492400       0.00697160
    85  C          0.21463000       0.02035600       0.38693150
    86  C          0.28537000       0.52035600       0.11306850
    87  C          0.78537000       0.97964400       0.61306850
    88  C          0.71463000       0.47964400       0.88693150
    89  C          0.13723000       0.06259600       0.36723170
    90  C          0.36277000       0.56259600       0.13276830
    91  C          0.86277000       0.93740400       0.63276830
    92  C          0.63723000       0.43740400       0.86723170
    93  C          0.10183000       0.08938600       0.46475160
    94  C          0.39817000       0.58938600       0.03524840
    95  C          0.89817000       0.91061400       0.53524840
    96  C          0.60183000       0.41061400       0.96475160
    97  H         -0.00630000       0.19087000       0.79691800
    98  H          0.50630000       0.69087000       0.70308200
    99  H          0.00630000       0.80913000       0.20308200
   100  H          0.49370000       0.30913000       0.29691800
   101  H          0.39130000       0.90563000       0.18111600
   102  H          0.10870000       0.40563000       0.31888400
   103  H          0.60870000       0.09437000       0.81888400
   104  H          0.89130000       0.59437000       0.68111600
   105  H          0.13830000       0.19141000       0.20730000
   106  H          0.36170000       0.69141000       0.29270000
   107  H          0.86170000       0.80859000       0.79270000
   108  H          0.63830000       0.30859000       0.70730000
   109  H         -0.00450000       0.22758000       0.17530000
   110  H          0.50450000       0.72758000       0.32470000
   111  H          0.00450000       0.77242000       0.82470000
   112  H          0.49550000       0.27242000       0.67530000
   113  H          0.92460000       0.18191100       0.20430000
   114  H          0.57540000       0.68191100       0.29570000
   115  H          0.07540000       0.81808900       0.79570000
   116  H          0.42460000       0.31808900       0.70430000
   117  H          0.27940000       0.90008900       0.76970000
   118  H          0.22060000       0.40008900       0.73030000
   119  H          0.72060000       0.09991100       0.23030000
   120  H          0.77940000       0.59991100       0.26970000
   121  H          0.46350000       0.86982000       0.81670000
   122  H          0.03650000       0.36982000       0.68330000
   123  H          0.53650000       0.13018000       0.18330000
   124  H          0.96350000       0.63018000       0.31670000
   125  H          0.48240000       0.91761000       0.77470000
   126  H          0.01760000       0.41761000       0.72530000
   127  H          0.51760000       0.08239000       0.22530000
   128  H         -0.01760000       0.58239000       0.27470000
   129  H          0.24930000       0.02117000       0.68520000
   130  H          0.25070000       0.52117000       0.81480000
   131  H          0.75070000       0.97883000       0.31480000
   132  H          0.74930000       0.47883000       0.18520000
   133  H          0.30230000       0.97573000       0.52201700
   134  H          0.19770000       0.47573000       0.97798300
   135  H          0.69770000       0.02427000       0.47798300
   136  H          0.80230000       0.52427000       0.02201700
   137  H          0.11230000       0.07448000       0.28820000
   138  H          0.38770000       0.57448000       0.21180000
   139  H          0.88770000       0.92552000       0.71180000
   140  H          0.61230000       0.42552000       0.78820000
   141  H          0.04840000       0.11778000       0.45120000
   142  H          0.45160000       0.61778000       0.04880000
   143  H          0.95160000       0.88222000       0.54880000
   144  H          0.54840000       0.38222000       0.95120000
   145  F          0.01744000       0.32090500       0.47239160
   146  F          0.48256000       0.82090500       0.02760840
   147  F         -0.01744000       0.67909500       0.52760840
   148  F          0.51744000       0.17909500       0.97239160
   149  F          0.17273000       0.27449500       0.37246150
   150  F          0.32727000       0.77449500       0.12753850
   151  F          0.82727000       0.72550500       0.62753850
   152  F          0.67273000       0.22550500       0.87246150
   153  F          0.87448000       0.27274500       0.35563130
   154  F          0.62552000       0.77274500       0.14436870
   155  F          0.12552000       0.72725500       0.64436870
   156  F          0.37448000       0.22725500       0.85563130
   157  O          0.05753000       0.20644500       0.50448130
   158  O          0.44247000       0.70644500      -0.00448130
   159  O          0.94247000       0.79355500       0.49551870
   160  O          0.55753000       0.29355500       0.00448130
   161  O          0.00444000       0.25837600       0.64231160
   162  O          0.49556000       0.75837600       0.85768840
   163  O         -0.00444000       0.74162400       0.35768840
   164  O          0.50444000       0.24162400       0.14231160
   165  C          0.02804000       0.24635700       0.54184190
   166  C          0.47196000       0.74635700       0.95815810
   167  C          0.97196000       0.75364300       0.45815810
   168  C          0.52804000       0.25364300       0.04184190
   169  C          0.02494000       0.27945700       0.43502000
   170  C          0.47506000       0.77945700       0.06498000
   171  C          0.97506000       0.72054300       0.56498000
   172  C          0.52494000       0.22054300       0.93502000
   173  H          0.04840000       0.18531000       0.56430000
   174  H          0.45160000       0.68531000       0.93570000
   175  H          0.95160000       0.81469000       0.43570000
   176  H          0.54840000       0.31469000       0.06430000
   177  F          0.60522000       0.83312500       0.62746130
   178  F          0.89478000       0.33312500       0.87253870
   179  F          0.39478000       0.16687500       0.37253870
   180  F          0.10522000       0.66687500       0.12746130
   181  F          0.47723000       0.78166500       0.51258150
   182  F          0.02277000       0.28166500      -0.01258150
   183  F          0.52277000       0.21833500       0.48741850
   184  F          0.97723000       0.71833500       0.01258150
   185  F          0.30892000       0.82363500       0.61570140
   186  F          0.19108000       0.32363500       0.88429860
   187  F          0.69108000       0.17636500       0.38429860
   188  F          0.80892000       0.67636500       0.11570140
   189  O          0.37873000       0.89439500       0.48010130
   190  O          0.12127000       0.39439500       0.01989870
   191  O          0.62127000       0.10560500       0.51989870
   192  O          0.87873000       0.60560500       0.98010130
   193  O          0.46903000       0.84575400       0.34379150
   194  O          0.03097000       0.34575400       0.15620850
   195  O          0.53097000       0.15424600       0.65620850
   196  O          0.96903000       0.65424600       0.84379150
   197  C          0.43383000       0.85575300       0.44391180
   198  C          0.06617000       0.35575300       0.05608820
   199  C          0.56617000       0.14424700       0.55608820
   200  C          0.93383000       0.64424700       0.94391180
   201  C          0.45554000       0.82258300       0.55022000
   202  C          0.04446000       0.32258300       0.94978000
   203  C          0.54446000       0.17741700       0.44978000
   204  C          0.95554000       0.67741700       0.05022000
   205  H          0.37640000       0.91429000       0.42030000
   206  H          0.12360000       0.41429000       0.07970000
   207  H          0.62360000       0.08571000       0.57970000
   208  H          0.87640000       0.58571000       0.92030000
