data_ZEBLAV
_symmetry_space_group_name_H-M    'P1'
_symmetry_Int_Tables_number       1
loop_
_symmetry_equiv_pos_site_id
_symmetry_equiv_pos_as_xyz
1 x,y,z
_cell_length_a                   8.58707
_cell_length_b                   7.11416
_cell_length_c                   14.786112
_cell_angle_alpha                90.0
_cell_angle_beta                 99.20901
_cell_angle_gamma                90.0
loop_
_atom_site_label
_atom_site_type_symbol
_atom_site_fract_x
_atom_site_fract_y
_atom_site_fract_z
     1  C          0.35834000       0.51220000       0.93772000
     2  C          0.64166000       0.51220000       0.06228000
     3  C          0.85834000       0.01220000       0.93772000
     4  C          0.14166000       0.01220000       0.06228000
     5  C          0.50245000       0.51620000       0.90842000
     6  C          0.49755000       0.51620000       0.09158000
     7  C          0.00245000       0.01620000       0.90842000
     8  C         -0.00245000       0.01620000       0.09158000
     9  C          0.64064000       0.51220000       0.96893000
    10  C          0.35936000       0.51220000       0.03107000
    11  C          0.14064000       0.01220000       0.96893000
    12  C          0.85936000       0.01220000       0.03107000
    13  F          0.50913000       0.51011500       0.81802140
    14  F          0.49087000       0.51011500       0.18197860
    15  F          0.00913000       0.01011500       0.81802140
    16  F         -0.00913000       0.01011500       0.18197860
    17  F          0.77753000       0.50920000       0.93592170
    18  F          0.22247000       0.50920000       0.06407830
    19  F          0.27753000       0.00920000       0.93592170
    20  F          0.72247000       0.00920000       0.06407830
    21  I          0.14882300       0.51124400       0.84470717
    22  I          0.85117700       0.51124400       0.15529283
    23  I          0.64882300       0.01124400       0.84470717
    24  I          0.35117700       0.01124400       0.15529283
    25  C          0.86267000       0.28936000       0.64153000
    26  C          0.13733000       0.28936000       0.35847000
    27  C          0.36267000       0.78936000       0.64153000
    28  C          0.63733000       0.78936000       0.35847000
    29  H          0.84590000       0.16610000       0.65870000
    30  H          0.15410000       0.16610000       0.34130000
    31  H          0.34590000       0.66610000       0.65870000
    32  H          0.65410000       0.66610000       0.34130000
    33  C          0.81354000       0.43807000       0.69112000
    34  C          0.18646000       0.43807000       0.30888000
    35  C          0.31354000       0.93807000       0.69112000
    36  C          0.68646000       0.93807000       0.30888000
    37  H          0.76400000       0.41420000       0.74140000
    38  H          0.23600000       0.41420000       0.25860000
    39  H          0.26400000       0.91420000       0.74140000
    40  H          0.73600000       0.91420000       0.25860000
    41  C          0.83856000       0.62216000       0.66543000
    42  C          0.16144000       0.62216000       0.33457000
    43  C          0.33856000       0.12216000       0.66543000
    44  C          0.66144000       0.12216000       0.33457000
    45  H          0.80560000       0.72150000       0.69860000
    46  H          0.19440000       0.72150000       0.30140000
    47  H          0.30560000       0.22150000       0.69860000
    48  H          0.69440000       0.22150000       0.30140000
    49  C          0.91257000       0.65777000       0.59023000
    50  C          0.08743000       0.65777000       0.40977000
    51  C          0.41257000       0.15777000       0.59023000
    52  C          0.58743000       0.15777000       0.40977000
    53  H          0.92920000       0.78090000       0.57310000
    54  H          0.07080000       0.78090000       0.42690000
    55  H          0.42920000       0.28090000       0.57310000
    56  H          0.57080000       0.28090000       0.42690000
    57  C          0.96164000       0.50909000       0.54063190
    58  C          0.03836000       0.50909000       0.45936810
    59  C          0.46164000       0.00909000       0.54063190
    60  C          0.53836000       0.00909000       0.45936810
    61  C          0.93676000       0.32498000       0.56633000
    62  C          0.06324000       0.32498000       0.43367000
    63  C          0.43676000       0.82498000       0.56633000
    64  C          0.56324000       0.82498000       0.43367000
    65  C         -0.00000000       0.19631100       0.50000000
    66  C          0.50000000       0.69631100       0.50000000
    67  H          0.08310000       0.11700000       0.53170000
    68  H          0.91690000       0.11700000       0.46830000
    69  H          0.58310000       0.61700000       0.53170000
    70  H          0.41690000       0.61700000       0.46830000
