data_ZEBXUB
_symmetry_space_group_name_H-M    'P1'
_symmetry_Int_Tables_number       1
loop_
_symmetry_equiv_pos_site_id
_symmetry_equiv_pos_as_xyz
1 x,y,z
_cell_length_a                   10.70483
_cell_length_b                   6.23922
_cell_length_c                   21.45298
_cell_angle_alpha                90.0
_cell_angle_beta                 107.2003
_cell_angle_gamma                90.0
loop_
_atom_site_label
_atom_site_type_symbol
_atom_site_fract_x
_atom_site_fract_y
_atom_site_fract_z
     1  O          0.27374120       0.90718000       0.86178600
     2  O          0.72625880       0.40718000       0.63821400
     3  O          0.72625880       0.09282000       0.13821400
     4  O          0.27374120       0.59282000       0.36178600
     5  O          0.96740860       0.91928000       0.84260700
     6  O          0.03259140       0.41928000       0.65739300
     7  O          0.03259140       0.08072000       0.15739300
     8  O          0.96740860       0.58072000       0.34260700
     9  O          0.90530880       0.53842000       0.87854600
    10  O          0.09469120       0.03842000       0.62145400
    11  O          0.09469120       0.46158000       0.12145400
    12  O          0.90530880       0.96158000       0.37854600
    13  H          0.92340000       0.66470000       0.87060000
    14  H          0.07660000       0.16470000       0.62940000
    15  H          0.07660000       0.33530000       0.12940000
    16  H          0.92340000       0.83530000       0.37060000
    17  N          0.24448160       0.87407000       0.75322700
    18  N          0.75551840       0.37407000       0.74677300
    19  N          0.75551840       0.12593000       0.24677300
    20  N          0.24448160       0.62593000       0.25322700
    21  H          0.29690000       0.75360000       0.76030000
    22  H          0.70310000       0.25360000       0.73970000
    23  H          0.70310000       0.24640000       0.23970000
    24  H          0.29690000       0.74640000       0.26030000
    25  H          0.20870000       0.92470000       0.71460000
    26  H          0.79130000       0.42470000       0.78540000
    27  H          0.79130000       0.07530000       0.28540000
    28  H          0.20870000       0.57530000       0.21460000
    29  N          0.08467150       0.22223000       0.84325700
    30  N          0.91532850       0.72223000       0.65674300
    31  N          0.91532850       0.77777000       0.15674300
    32  N          0.08467150       0.27777000       0.34325700
    33  C          0.22243170       0.96697000       0.80481900
    34  C          0.77756830       0.46697000       0.69518100
    35  C          0.77756830       0.03303000       0.19518100
    36  C          0.22243170       0.53303000       0.30481900
    37  C          0.12951180       0.15773000       0.78916900
    38  C          0.87048820       0.65773000       0.71083100
    39  C          0.87048820       0.84227000       0.21083100
    40  C          0.12951180       0.34227000       0.28916900
    41  H          0.17450000       0.28010000       0.77580000
    42  H          0.82550000       0.78010000       0.72420000
    43  H          0.82550000       0.71990000       0.22420000
    44  H          0.17450000       0.21990000       0.27580000
    45  H          0.05290000       0.12020000       0.75180000
    46  H          0.94710000       0.62020000       0.74820000
    47  H          0.94710000       0.87980000       0.24820000
    48  H          0.05290000       0.37980000       0.25180000
    49  C          0.00832170       0.09493000       0.86688900
    50  C         -0.00832170       0.59493000       0.63311100
    51  C         -0.00832170       0.90507000       0.13311100
    52  C          0.00832170       0.40507000       0.36688900
    53  C         -0.01624180       0.20183000       0.92511900
    54  C          0.01624180       0.70183000       0.57488100
    55  C          0.01624180       0.79817000       0.07488100
    56  C         -0.01624180       0.29817000       0.42511900
    57  H          0.03920000       0.13900000       0.96640000
    58  H          0.96080000       0.63900000       0.53360000
    59  H          0.96080000       0.86100000       0.03360000
    60  H          0.03920000       0.36100000       0.46640000
    61  H          0.89080000       0.18930000       0.92370000
    62  H          0.10920000       0.68930000       0.57630000
    63  H          0.10920000       0.81070000       0.07630000
    64  H          0.89080000       0.31070000       0.42370000
    65  C          0.02091170       0.43473000       0.91803900
    66  C          0.97908830       0.93473000       0.58196100
    67  C          0.97908830       0.56527000       0.08196100
    68  C          0.02091170       0.06527000       0.41803900
    69  H          0.05600000       0.50620000       0.96140000
    70  H          0.94400000       0.00620000       0.53860000
    71  H          0.94400000       0.49380000       0.03860000
    72  H          0.05600000      -0.00620000       0.46140000
    73  C          0.12511180       0.41713000       0.88223900
    74  C          0.87488820       0.91713000       0.61776100
    75  C          0.87488820       0.58287000       0.11776100
    76  C          0.12511180       0.08287000       0.38223900
    77  H          0.12350000       0.54350000       0.85410000
    78  H          0.87650000       0.04350000       0.64590000
    79  H          0.87650000       0.45650000       0.14590000
    80  H          0.12350000       0.95650000       0.35410000
    81  H          0.21380000       0.40130000       0.91330000
    82  H          0.78620000       0.90130000       0.58670000
    83  H          0.78620000       0.59870000       0.08670000
    84  H          0.21380000       0.09870000       0.41330000
    85  O          0.43864120       0.59192000       0.90145600
    86  O          0.56135880       0.09192000       0.59854400
    87  O          0.56135880       0.40808000       0.09854400
    88  O          0.43864120       0.90808000       0.40145600
    89  H          0.38410000       0.68670000       0.88350000
    90  H          0.61590000       0.18670000       0.61650000
    91  H          0.61590000       0.31330000       0.11650000
    92  H          0.38410000       0.81330000       0.38350000
    93  O          0.39042130       0.47692000       0.79836600
    94  O          0.60957870       0.97692000       0.70163400
    95  O          0.60957870       0.52308000       0.20163400
    96  O          0.39042130       0.02308000       0.29836600
    97  O          0.65820130       0.78568000       0.82134600
    98  O          0.34179870       0.28568000       0.67865400
    99  O          0.34179870       0.21432000       0.17865400
   100  O          0.65820130       0.71432000       0.32134600
   101  H          0.63980000       0.83270000       0.78300000
   102  H          0.36020000       0.33270000       0.71700000
   103  H          0.36020000       0.16730000       0.21700000
   104  H          0.63980000       0.66730000       0.28300000
   105  O          0.75315130       0.72318000       0.95168600
   106  O          0.24684870       0.22318000       0.54831400
   107  O          0.24684870       0.27682000       0.04831400
   108  O          0.75315130       0.77682000       0.45168600
   109  H          0.77230000       0.66140000       0.92090000
   110  H          0.22770000       0.16140000       0.57910000
   111  H          0.22770000       0.33860000       0.07910000
   112  H          0.77230000       0.83860000       0.42090000
   113  C          0.44980170       0.45253000       0.85710900
   114  C          0.55019830       0.95253000       0.64289100
   115  C          0.55019830       0.54747000       0.14289100
   116  C          0.44980170       0.04747000       0.35710900
   117  C          0.53336170       0.26693000       0.88267900
   118  C          0.46663830       0.76693000       0.61732100
   119  C          0.46663830       0.73307000       0.11732100
   120  C          0.53336170       0.23307000       0.38267900
   121  C          0.55811170       0.11993000       0.83892800
   122  C          0.44188830       0.61993000       0.66107200
   123  C          0.44188830       0.88007000       0.16107200
   124  C          0.55811170       0.38007000       0.33892800
   125  H          0.52380000       0.14470000       0.79330000
   126  H          0.47620000       0.64470000       0.70670000
   127  H          0.47620000       0.85530000       0.20670000
   128  H          0.52380000       0.35530000       0.29330000
   129  C          0.63181170       0.93867000       0.86085800
   130  C          0.36818830       0.43867000       0.63914200
   131  C          0.36818830       0.06133000       0.13914200
   132  C          0.63181170       0.56133000       0.36085800
   133  C          0.68131170       0.90107000       0.92867900
   134  C          0.31868830       0.40107000       0.57132100
   135  C          0.31868830       0.09893000       0.07132100
   136  C          0.68131170       0.59893000       0.42867900
   137  C          0.65656180       0.04664000       0.97219900
   138  C          0.34343820       0.54664000       0.52780100
   139  C          0.34343820       0.95336000       0.02780100
   140  C          0.65656180       0.45336000       0.47219900
   141  H          0.69010000       0.02100000       0.01780000
   142  H          0.30990000       0.52100000       0.48220000
   143  H          0.30990000      -0.02100000       0.98220000
   144  H          0.69010000       0.47900000       0.51780000
   145  C          0.58326180       0.22953000       0.94990900
   146  C          0.41673820       0.72953000       0.55009100
   147  C          0.41673820       0.77047000       0.05009100
   148  C          0.58326180       0.27047000       0.44990900
   149  H          0.56690000       0.32900000       0.98010000
   150  H          0.43310000       0.82900000       0.51990000
   151  H          0.43310000       0.67100000       0.01990000
   152  H          0.56690000       0.17100000       0.48010000
