data_ZECRAA
_symmetry_space_group_name_H-M    'P1'
_symmetry_Int_Tables_number       1
loop_
_symmetry_equiv_pos_site_id
_symmetry_equiv_pos_as_xyz
1 x,y,z
_cell_length_a                   11.7793
_cell_length_b                   12.7472
_cell_length_c                   8.8181
_cell_angle_alpha                107.141
_cell_angle_beta                 92.593
_cell_angle_gamma                101.863
loop_
_atom_site_label
_atom_site_type_symbol
_atom_site_fract_x
_atom_site_fract_y
_atom_site_fract_z
     1  O          0.47494000       0.12823000       0.16835000
     2  O          0.64104000       0.09493000      -0.00425000
     3  O          0.80404000       0.53724000       0.11287000
     4  C          0.66864000       0.19534000       0.02386000
     5  C          0.61354000       0.27434000       0.12366000
     6  C          0.27445000       0.07584000       0.16577000
     7  C          0.16985000       0.02835000       0.22908000
     8  C          0.77765000       0.24325000       0.94964000
     9  C          0.51736000       0.24654000       0.20007000
    10  C          0.18455000      -0.00075000       0.36868000
    11  C          0.81795000       0.35225000       0.97393000
    12  C          0.46366000       0.32395000       0.29988000
    13  C          0.65425000       0.39814000       0.15587000
    14  C          0.29395000       0.01634000       0.44307000
    15  C          0.83105000       0.16415000       0.85233000
    16  C          0.37794000       0.09075000       0.24557000
    17  C          0.60416000       0.47195000       0.24188000
    18  C          0.25005000       0.09715000       0.01988000
    19  C          0.50426000       0.08065000       0.46128000
    20  C          0.76485000       0.43575000       0.07488000
    21  C          0.05306000       0.00606000       0.13679000
    22  C          0.50366000       0.43705000       0.31099000
    23  C          0.91966000       0.39295000       0.90702000
    24  C          0.41567000       0.00506000       0.66148000
    25  C          0.51586000       0.05585000       0.60308000
    26  C          0.39095000       0.06435000       0.37977000
    27  C          0.14117000       0.07476000       0.93859000
    28  C          0.31117000      -0.01425000       0.59198000
    29  C          0.97086000       0.31227000       0.81371000
    30  C          0.93086000       0.20356000       0.78231000
    31  C          0.04626000       0.03666000       0.00099000
    32  H          0.11150000       0.96350000       0.41070000
    33  H          0.80550000       0.08250000       0.82630000
    34  H          0.63450000       0.55450000       0.27370000
    35  H         -0.00360000       0.98340000       0.20080000
    36  H          0.57860000       0.12060000       0.42180000
    37  H          0.39350000       0.29250000       0.35270000
    38  H          0.96240000       0.02150000       0.94420000
    39  H          0.97860000       0.15160000       0.70620000
    40  H          0.94550000       0.47550000       0.91720000
    41  H          0.32050000       0.13250000       0.97430000
    42  H          0.24160000       0.95340000       0.62380000
    43  H          0.46060000       0.49350000       0.37680000
    44  H          0.12760000       0.08860000       0.82820000
    45  H          0.04560000       0.34760000       0.76420000
    46  H          0.42860000      -0.01160000       0.76980000
    47  H          0.59460000       0.04650000       0.61480000
    48  O          0.11093000       0.65707000       0.36465000
    49  O          0.95066000       0.69757000       0.55615000
    50  O          0.79376000       0.24836000       0.43406000
    51  C          0.91155000       0.59426000       0.52946000
    52  C          0.81225000       0.55176000       0.59797000
    53  C          0.83175000       0.35015000       0.45947000
    54  C          0.93306000       0.39816000       0.39826000
    55  C          0.18785000       0.72116000       0.15397000
    56  C          0.21186000       0.69586000       0.30127000
    57  C          0.97545000       0.50915000       0.42156000
    58  C          0.77005000       0.43015000       0.56507000
    59  C          0.75174000       0.62355000       0.69547000
    60  C          0.29236000       0.77295000       0.09387000
    61  C          0.07494000       0.54926000       0.34866000
    62  C          0.08276000       0.35375000       0.22187000
    63  C          0.27456000       0.80075000       0.95812000
    64  C          0.32735000       0.71925000       0.38617000
    65  C          0.07616000       0.69875000       0.07297000
    66  C          0.33767000       0.69345000       0.53428000
    67  C          0.12675000       0.46885000       0.25507000
    68  C          0.42295000       0.76605000       0.31777000
    69  C         -0.00765000       0.31646000       0.29628000
    70  C          0.67615000       0.39324000       0.63679000
    71  C          0.40395000       0.79155000       0.17588000
    72  C          0.61564000       0.46585000       0.73328000
    73  C          0.06206000       0.72934000       0.93999000
    74  C          0.53146000       0.78515000       0.39548000
    75  C          0.15937000       0.77734000       0.87872000
    76  C          0.54926000       0.77034000       0.53421000
    77  C          0.65714000       0.58514000       0.75967000
    78  C          0.44746000       0.71514000       0.60428000
    79  H          0.47160000       0.82750000       0.14070000
    80  H          0.63750000       0.30750000       0.61470000
    81  H          0.61840000       0.63850000       0.83280000
    82  H          0.79350000       0.70950000       0.72170000
    83  H          0.01650000       0.67450000       0.13270000
    84  H          0.34560000       0.83750000       0.90420000
    85  H          0.96050000       0.22550000       0.29970000
    86  H          0.60260000       0.81440000       0.35380000
    87  H          0.26850000       0.66150000       0.57970000
    88  H          0.46160000       0.69440000       0.70080000
    89  H          0.62460000       0.77350000       0.58780000
    90  H          0.12150000       0.28950000       0.14370000
    91  H          0.19550000       0.49450000       0.21270000
    92  H          0.54840000       0.44540000       0.78180000
    93  H          0.13660000       0.78840000       0.78020000
    94  H          0.97550000       0.70950000       0.86830000
    95  O          0.68945000       0.87674000       0.97515000
    96  O          0.89795000       0.91324000       0.56876000
    97  C          0.83136000       0.80265000       0.28998000
    98  C          0.80946000      -0.00905000       0.39537000
    99  C          0.78236000       0.79615000       0.14298000
   100  C          0.75465000       0.98305000       0.24817000
   101  C          0.74376000       0.88646000       0.12228000
   102  C          0.84785000       0.90134000       0.41737000
   103  H          0.72950000       0.04540000       0.23960000
   104  H          0.86450000       0.73550000       0.31770000
   105  H          0.81150000       0.06150000       0.48570000
   106  H          0.76260000       0.72750000       0.04680000
   107  H          0.67870000       0.94160000       0.94190000
   108  H          0.93770000       0.85060000       0.54590000
   109  C          0.33196000       0.47426000       0.92279000
   110  C          0.34177000       0.36926000       0.89979000
   111  C          0.24998000       0.42477000       0.64821000
   112  C          0.27317000       0.50125000       0.78359000
   113  C          0.26297000       0.31286000       0.62668000
   114  C          0.29738000       0.28576000       0.73911000
   115  H          0.36970000       0.33860000       0.97990000
   116  H          0.26770000       0.25970000       0.53690000
   117  H          0.19660000       0.43660000       0.55390000
   118  H          0.28270000       0.58460000       0.81590000
   119  H          0.36250000       0.53750000       0.03970000
   120  H          0.31660000       0.21060000       0.73580000
