data_ZEFJED
_symmetry_space_group_name_H-M    'P1'
_symmetry_Int_Tables_number       1
loop_
_symmetry_equiv_pos_site_id
_symmetry_equiv_pos_as_xyz
1 x,y,z
_cell_length_a                   8.03803
_cell_length_b                   25.19597
_cell_length_c                   13.67446
_cell_angle_alpha                90.0
_cell_angle_beta                 105.3684
_cell_angle_gamma                90.0
loop_
_atom_site_label
_atom_site_type_symbol
_atom_site_fract_x
_atom_site_fract_y
_atom_site_fract_z
     1  Cl         0.33115150       0.71702500       0.39941130
     2  Cl         0.16884850       0.21702500       0.10058870
     3  Cl         0.66884850       0.28297500       0.60058870
     4  Cl         0.83115150       0.78297500       0.89941130
     5  C          0.11925000       0.58933190       0.48744000
     6  C          0.38075000       0.08933190       0.01256000
     7  C          0.88075000       0.41066810       0.51256000
     8  C          0.61925000       0.91066810       0.98744000
     9  H          0.09160000       0.57660000       0.54490000
    10  H          0.40840000       0.07660000       0.95510000
    11  H          0.90840000       0.42340000       0.45510000
    12  H          0.59160000       0.92340000       0.04490000
    13  C          0.08165000       0.55938170       0.40064000
    14  C          0.41835000       0.05938170       0.09936000
    15  C          0.91835000       0.44061830       0.59936000
    16  C          0.58165000       0.94061830       0.90064000
    17  H          0.03140000       0.52620000       0.40110000
    18  H          0.46860000       0.02620000       0.09890000
    19  H          0.96860000       0.47380000       0.59890000
    20  H          0.53140000       0.97380000       0.90110000
    21  C          0.11486000       0.57642000       0.31564000
    22  C          0.38514000       0.07642000       0.18436000
    23  C          0.88514000       0.42358000       0.68436000
    24  C          0.61486000       0.92358000       0.81564000
    25  H          0.08560000       0.55570000       0.25710000
    26  H          0.41440000       0.05570000       0.24290000
    27  H          0.91440000       0.44430000       0.74290000
    28  H          0.58560000       0.94430000       0.75710000
    29  C          0.19456000       0.62592000       0.31524000
    30  C          0.30544000       0.12592000       0.18476000
    31  C          0.80544000       0.37408000       0.68476000
    32  C          0.69456000       0.87408000       0.81524000
    33  H          0.22040000       0.63820000       0.25690000
    34  H          0.27960000       0.13820000       0.24310000
    35  H          0.77960000       0.36180000       0.74310000
    36  H          0.72040000       0.86180000       0.75690000
    37  C          0.23345000       0.65568160       0.40164000
    38  C          0.26655000       0.15568160       0.09836000
    39  C          0.76655000       0.34431840       0.59836000
    40  C          0.73345000       0.84431840       0.90164000
    41  C          0.19835000       0.63855180       0.49004000
    42  C          0.30165000       0.13855180       0.00996000
    43  C          0.80165000       0.36144820       0.50996000
    44  C          0.69835000       0.86144820      -0.00996000
    45  H          0.22630000       0.65900000       0.54870000
    46  H          0.27370000       0.15900000       0.95130000
    47  H          0.77370000       0.34100000       0.45130000
    48  H          0.72630000       0.84100000       0.04870000
    49  O          0.00993000       0.16642800       0.75065160
    50  O          0.49007000       0.66642800       0.74934840
    51  O         -0.00993000       0.83357200       0.24934840
    52  O          0.50993000       0.33357200       0.25065160
    53  O         -0.01263000       0.12490700       0.42263150
    54  O          0.51263000       0.62490700       0.07736850
    55  O          0.01263000       0.87509300       0.57736850
    56  O          0.48737000       0.37509300       0.92263150
    57  N         -0.00013000       0.14698900       0.58641180
    58  N          0.50013000       0.64698900       0.91358820
    59  N          0.00013000       0.85301100       0.41358820
    60  N          0.49987000       0.35301100       0.08641180
    61  C          0.93146000       0.09456100       0.59922000
    62  C          0.56854000       0.59456100       0.90078000
    63  C          0.06854000       0.90543900       0.40078000
    64  C          0.43146000       0.40543900       0.09922000
    65  C          0.75716000       0.08929120       0.59183000
    66  C          0.74284000       0.58929120       0.90817000
    67  C          0.24284000       0.91070880       0.40817000
    68  C          0.25716000       0.41070880       0.09183000
    69  C          0.69475000       0.03773140       0.59903000
    70  C          0.80525000       0.53773140       0.90097000
    71  C          0.30525000       0.96226860       0.40097000
    72  C          0.19475000       0.46226860       0.09903000
    73  H          0.57850000       0.03280000       0.59490000
    74  H          0.92150000       0.53280000       0.90510000
    75  H          0.42150000       0.96720000       0.40510000
    76  H          0.07850000       0.46720000       0.09490000
    77  C          0.80195000      -0.00522120       0.61212000
    78  C          0.69805000       0.49477880       0.88788000
    79  C          0.19805000       0.00522120       0.38788000
    80  C          0.30195000       0.50522120       0.11212000
    81  H          0.75760000       0.96090000       0.61510000
    82  H          0.74240000       0.46090000       0.88490000
    83  H          0.24240000       0.03910000       0.38490000
    84  H          0.25760000       0.53910000       0.11510000
    85  C          0.97405000       0.00127120       0.62092000
    86  C          0.52595000       0.50127120       0.87908000
    87  C          0.02595000      -0.00127120       0.37908000
    88  C          0.47405000       0.49872880       0.12092000
    89  H          0.04600000       0.97170000       0.63030000
    90  H          0.45400000       0.47170000       0.86970000
    91  H          0.95400000       0.02830000       0.36970000
    92  H          0.54600000       0.52830000       0.13030000
    93  C          0.04334000       0.05157110       0.61592000
    94  C          0.45666000       0.55157110       0.88408000
    95  C          0.95666000       0.94842890       0.38408000
    96  C          0.54334000       0.44842890       0.11592000
    97  C          0.23474000       0.05740130       0.63122000
    98  C          0.26526000       0.55740130       0.86878000
    99  C          0.76526000       0.94259870       0.36878000
   100  C          0.73474000       0.44259870       0.13122000
   101  H          0.25560000       0.08670000       0.58990000
   102  H          0.24440000       0.58670000       0.91010000
   103  H          0.74440000       0.91330000       0.41010000
   104  H          0.75560000       0.41330000       0.08990000
   105  H          0.27860000       0.02540000       0.60750000
   106  H          0.22140000       0.52540000       0.89250000
   107  H          0.72140000       0.97460000       0.39250000
   108  H          0.77860000       0.47460000       0.10750000
   109  C          0.33315000       0.06712000       0.73943000
   110  C          0.16685000       0.56712000       0.76057000
   111  C          0.66685000       0.93288000       0.26057000
   112  C          0.83315000       0.43288000       0.23943000
   113  H          0.45410000       0.06940000       0.74390000
   114  H          0.04590000       0.56940000       0.75610000
   115  H          0.54590000       0.93060000       0.25610000
   116  H          0.95410000       0.43060000       0.24390000
   117  H          0.31300000       0.03840000       0.78100000
   118  H          0.18700000       0.53840000       0.71900000
   119  H          0.68700000       0.96160000       0.21900000
   120  H          0.81300000       0.46160000       0.28100000
   121  H          0.29510000       0.09980000       0.76240000
   122  H          0.20490000       0.59980000       0.73760000
   123  H          0.70490000       0.90020000       0.23760000
   124  H          0.79510000       0.40020000       0.26240000
   125  C          0.63565000       0.13582150       0.57563000
   126  C          0.86435000       0.63582150       0.92437000
   127  C          0.36435000       0.86417850       0.42437000
   128  C          0.13565000       0.36417850       0.07563000
   129  H          0.54860000       0.12960000       0.61160000
   130  H          0.95140000       0.62960000       0.88840000
   131  H          0.45140000       0.87040000       0.38840000
   132  H          0.04860000       0.37040000       0.11160000
   133  H          0.69950000       0.16740000       0.60380000
   134  H          0.80050000       0.66740000       0.89620000
   135  H          0.30050000       0.83260000       0.39620000
   136  H          0.19950000       0.33260000       0.10380000
   137  C          0.54984000       0.14492000       0.46684000
   138  C          0.95016000       0.64492000       0.03316000
   139  C          0.45016000       0.85508000       0.53316000
   140  C          0.04984000       0.35508000       0.96684000
   141  H          0.63510000       0.15360000       0.43160000
   142  H          0.86490000       0.65360000       0.06840000
   143  H          0.36490000       0.84640000       0.56840000
   144  H          0.13510000       0.34640000       0.93160000
   145  H          0.46960000       0.17380000       0.46020000
   146  H          0.03040000       0.67380000       0.03980000
   147  H          0.53040000       0.82620000       0.53980000
   148  H          0.96960000       0.32620000       0.96020000
   149  H          0.48940000       0.11340000       0.43800000
   150  H          0.01060000       0.61340000       0.06200000
   151  H          0.51060000       0.88660000       0.56200000
   152  H         -0.01060000       0.38660000       0.93800000
   153  C          0.03804000       0.18087110       0.67212000
   154  C          0.46196000       0.68087110       0.82788000
   155  C          0.96196000       0.81912890       0.32788000
   156  C          0.53804000       0.31912890       0.17212000
   157  C          0.11173000       0.23304100       0.65722000
   158  C          0.38827000       0.73304100       0.84278000
   159  C          0.88827000       0.76695900       0.34278000
   160  C          0.61173000       0.26695900       0.15722000
   161  C          0.15664000       0.27004110       0.73472000
   162  C          0.34336000       0.77004110       0.76528000
   163  C          0.84336000       0.72995890       0.26528000
   164  C          0.65664000       0.22995890       0.23472000
   165  H          0.14050000       0.26170000       0.79780000
   166  H          0.35950000       0.76170000       0.70220000
   167  H          0.85950000       0.73830000       0.20220000
   168  H          0.64050000       0.23830000       0.29780000
   169  C          0.22634000       0.32014110       0.72072000
   170  C          0.27366000       0.82014110       0.77928000
   171  C          0.77366000       0.67985890       0.27928000
   172  C          0.72634000       0.17985890       0.22072000
   173  H          0.25590000       0.34440000       0.77380000
   174  H          0.24410000       0.84440000       0.72620000
   175  H          0.74410000       0.65560000       0.22620000
   176  H          0.75590000       0.15560000       0.27380000
   177  C          0.24963000       0.33239100       0.62712000
   178  C          0.25037000       0.83239100       0.87288000
   179  C          0.75037000       0.66760900       0.37288000
   180  C          0.74963000       0.16760900       0.12712000
   181  C          0.20223000       0.29447100       0.54872000
   182  C          0.29777000       0.79447100       0.95128000
   183  C          0.79777000       0.70552900       0.45128000
   184  C          0.70223000       0.20552900       0.04872000
   185  C          0.23213000       0.31203100       0.45652000
   186  C          0.26787000       0.81203100       0.04348000
   187  C          0.76787000       0.68796900       0.54348000
   188  C          0.73213000       0.18796900       0.95652000
   189  C          0.19204000       0.27789100       0.37422000
   190  C          0.30796000       0.77789100       0.12578000
   191  C          0.80796000       0.72210900       0.62578000
   192  C          0.69204000       0.22210900       0.87422000
   193  H          0.21040000       0.28790000       0.31250000
   194  H          0.28960000       0.78790000       0.18750000
   195  H          0.78960000       0.71210000       0.68750000
   196  H          0.71040000       0.21210000       0.81250000
   197  C          0.12234000       0.22745100       0.38622000
   198  C          0.37766000       0.72745100       0.11378000
   199  C          0.87766000       0.77254900       0.61378000
   200  C          0.62234000       0.27254900       0.88622000
   201  H          0.09450000       0.20450000       0.33090000
   202  H          0.40550000       0.70450000       0.16910000
   203  H          0.90550000       0.79550000       0.66910000
   204  H          0.59450000       0.29550000       0.83090000
   205  C          0.09383000       0.21092100       0.47692000
   206  C          0.40617000       0.71092100       0.02308000
   207  C          0.90617000       0.78907900       0.52308000
   208  C          0.59383000       0.28907900       0.97692000
   209  C          0.13453000       0.24513100       0.56132000
   210  C          0.36547000       0.74513100       0.93868000
   211  C          0.86547000       0.75486900       0.43868000
   212  C          0.63453000       0.25486900       0.06132000
   213  C          0.02373000       0.15805100       0.48952000
   214  C          0.47627000       0.65805100       0.01048000
   215  C          0.97627000       0.84194900       0.51048000
   216  C          0.52373000       0.34194900      -0.01048000
   217  C          0.30493000       0.36576100       0.47682000
   218  C          0.19507000       0.86576100       0.02318000
   219  C          0.69507000       0.63423900       0.52318000
   220  C          0.80493000       0.13423900       0.97682000
   221  C          0.35983000       0.40113100       0.41662000
   222  C          0.14017000       0.90113100       0.08338000
   223  C          0.64017000       0.59886900       0.58338000
   224  C          0.85983000       0.09886900       0.91662000
   225  H          0.35200000       0.39280000       0.34920000
   226  H          0.14800000       0.89280000       0.15080000
   227  H          0.64800000       0.60720000       0.65080000
   228  H          0.85200000       0.10720000       0.84920000
   229  C          0.42933000       0.45095100       0.45762000
   230  C          0.07067000       0.95095100       0.04238000
   231  C          0.57067000       0.54904900       0.54238000
   232  C          0.92933000       0.04904900       0.95762000
   233  C          0.48883000       0.48794100       0.39902000
   234  C          0.01117000       0.98794100       0.10098000
   235  C          0.51117000       0.51205900       0.60098000
   236  C         -0.01117000       0.01205900       0.89902000
   237  H          0.48150000       0.47990000       0.33160000
   238  H          0.01850000       0.97990000       0.16840000
   239  H          0.51850000       0.52010000       0.66840000
   240  H         -0.01850000       0.02010000       0.83160000
   241  C          0.55903000       0.53655100       0.43802000
   242  C          0.94097000       0.03655100       0.06198000
   243  C          0.44097000       0.46344900       0.56198000
   244  C          0.05903000       0.96344900       0.93802000
   245  C          0.61713000       0.57466100       0.37672000
   246  C          0.88287000       0.07466100       0.12328000
   247  C          0.38287000       0.42533900       0.62328000
   248  C          0.11713000       0.92533900       0.87672000
   249  H          0.60960000       0.56720000       0.30910000
   250  H          0.89040000       0.06720000       0.19090000
   251  H          0.39040000       0.43280000       0.69090000
   252  H          0.10960000       0.93280000       0.80910000
   253  C          0.68303000       0.62165100       0.41772000
   254  C          0.81697000       0.12165100       0.08228000
   255  C          0.31697000       0.37834900       0.58228000
   256  C          0.18303000       0.87834900       0.91772000
