data_ZEGYIW
_symmetry_space_group_name_H-M    'P1'
_symmetry_Int_Tables_number       1
loop_
_symmetry_equiv_pos_site_id
_symmetry_equiv_pos_as_xyz
1 x,y,z
_cell_length_a                   7.44353
_cell_length_b                   12.87726
_cell_length_c                   21.68711
_cell_angle_alpha                75.3464
_cell_angle_beta                 80.3364
_cell_angle_gamma                75.0334
loop_
_atom_site_label
_atom_site_type_symbol
_atom_site_fract_x
_atom_site_fract_y
_atom_site_fract_z
     1  F          0.37003000       0.94822150       0.38411100
     2  F          0.62997000       0.05177850       0.61588900
     3  F          0.21063000       0.91132150       0.50603100
     4  F          0.78937000       0.08867850       0.49396900
     5  F          0.13583000       0.06924160       0.57408100
     6  F          0.86417000       0.93075840       0.42591900
     7  F          0.21733000       0.26786160       0.52158900
     8  F          0.78267000       0.73213840       0.47841100
     9  O          0.23553000       0.42294160       0.36991100
    10  O          0.76447000       0.57705840       0.63008900
    11  O          0.46243000       0.29079170       0.31457100
    12  O          0.53757000       0.70920830       0.68542900
    13  O          0.50173000       0.13365180       0.26804120
    14  O          0.49827000       0.86634820       0.73195880
    15  N          0.54643000       0.37032000       0.39763130
    16  N          0.45357000       0.62968000       0.60236870
    17  C          0.34074000       0.21362000       0.42330160
    18  C          0.65926000       0.78638000       0.57669840
    19  C          0.37874000       0.13063000       0.38750160
    20  C          0.62126000       0.86937000       0.61249840
    21  C          0.33715000       0.03063000       0.41580180
    22  C          0.66285000       0.96937000       0.58419820
    23  C          0.25545000       0.00973000       0.47860170
    24  C          0.74455000       0.99027000       0.52139830
    25  C          0.21794000       0.08973000       0.51328160
    26  C          0.78206000       0.91027000       0.48671840
    27  C          0.26134000       0.19033000       0.48535160
    28  C          0.73866000       0.80967000       0.51464840
    29  C          0.72534000       0.32873000       0.40853160
    30  C          0.27466000       0.67127000       0.59146840
    31  C          0.82385000       0.39303000       0.42682170
    32  C          0.17615000       0.60697000       0.57317830
    33  C          0.74245000       0.49873000       0.43312160
    34  C          0.25755000       0.50127000       0.56687840
    35  C          0.44745000       0.65373000       0.42073160
    36  C          0.55255000       0.34627000       0.57926840
    37  C          0.27125000       0.68303000       0.40418160
    38  C          0.72875000       0.31697000       0.59581840
    39  C          0.18315000       0.61093000       0.38638150
    40  C          0.81685000       0.38907000       0.61361850
    41  C          0.28334000       0.50583000       0.38627150
    42  C          0.71666000       0.49417000       0.61372850
    43  C          0.46614000       0.47543000       0.40345150
    44  C          0.53386000       0.52457000       0.59654850
    45  C          0.55515000       0.54573000       0.42035160
    46  C          0.44485000       0.45427000       0.57964840
    47  B          0.39375000       0.32263000       0.37491190
    48  B          0.60625000       0.67737000       0.62508810
    49  B          0.45575000       0.18393000       0.31752000
    50  B          0.54425000       0.81607000       0.68248000
    51  H          0.78575900       0.25516900       0.40385300
    52  H          0.21424100       0.74483100       0.59614700
    53  H          0.95161500       0.36236300       0.43516200
    54  H          0.04838500       0.63763700       0.56483800
    55  H          0.81268700       0.54071000       0.44621900
    56  H          0.18731300       0.45929000       0.55378100
    57  H          0.49920900       0.70584700       0.43267400
    58  H          0.50079100       0.29415300       0.56732600
    59  H          0.20137900       0.75687900       0.40445600
    60  H          0.79862100       0.24312100       0.59554400
    61  H          0.05753200       0.63525500       0.37483000
    62  H          0.94246800       0.36474500       0.62517000
    63  H          0.53350000       0.17420000       0.22988000
    64  H          0.46650000       0.82580000       0.77012000
    65  F          0.80642000       0.19717140       0.95543100
    66  F          0.19358000       0.80282860       0.04456900
    67  F          0.90532000       0.37804140       0.87723100
    68  F          0.09468000       0.62195860       0.12276900
    69  F          0.86952000       0.56126140       0.92147100
    70  F          0.13048000       0.43873860       0.07852900
    71  F          0.73042000       0.56865130       0.04423900
    72  F          0.26958000       0.43134870       0.95576100
    73  O          0.79143000       0.09000170       0.11666110
    74  O          0.20857000       0.90999830       0.88333890
    75  O          0.58013000       0.25078160       0.15252100
    76  O          0.41987000       0.74921840       0.84747900
    77  O          0.45803000       0.44440160       0.16155100
    78  O          0.54197000       0.55559840       0.83844900
    79  N          0.48453000       0.14649190       0.08410120
    80  N          0.51547000       0.85350810       0.91589880
    81  N          0.77433000       0.36322000       0.18250120
    82  N          0.22567000       0.63678000       0.81749880
    83  C          0.71174000       0.28832000       0.04177160
    84  C          0.28826000       0.71168000       0.95822840
    85  C          0.69284000       0.38402000       0.06502150
    86  C          0.30716000       0.61598000       0.93497850
    87  C          0.74404000       0.47432000       0.02395160
    88  C          0.25596000       0.52568000       0.97604840
    89  C          0.81534000       0.47282000       0.96096840
    90  C          0.18466000       0.52718000       0.03903160
    91  C          0.83444000       0.38013000       0.93826850
    92  C          0.16556000       0.61987000       0.06173150
    93  C          0.78134000       0.28902000       0.97919840
    94  C          0.21866000       0.71098000       0.02080160
    95  C          0.31664000       0.19283000       0.06524160
    96  C          0.68336000       0.80717000       0.93475840
    97  C          0.20234000       0.12893000       0.05703170
    98  C          0.79766000       0.87107000       0.94296830
    99  C          0.26124000       0.01613000       0.06834170
   100  C          0.73876000       0.98387000       0.93165830
   101  C          0.53125000       0.84987000       0.10088170
   102  C          0.46875000       0.15013000       0.89911830
   103  C          0.70815000       0.81857000       0.11874160
   104  C          0.29185000       0.18143000       0.88125840
   105  C          0.81084000       0.89248000       0.12539150
   106  C          0.18916000       0.10752000       0.87460850
   107  C          0.72644000       0.00273000       0.11331150
   108  C          0.27356000      -0.00273000       0.88668850
   109  C          0.54524000       0.03532000       0.09440150
   110  C          0.45476000       0.96468000       0.90559850
   111  C          0.44154000       0.96367000       0.08784160
   112  C          0.55846000       0.03633000       0.91215840
   113  C          0.94664000       0.30493000       0.19011160
   114  C          0.05336000       0.69507000       0.80988840
   115  C          0.05925000       0.33733000       0.22374170
   116  C          0.94075000       0.66267000       0.77625830
   117  C         -0.00465000       0.42923000       0.24852170
   118  C          0.00465000       0.57077000       0.75147830
   119  C          0.71375000       0.58903000       0.26257170
   120  C          0.28625000       0.41097000       0.73742830
   121  C          0.53225000       0.63643000       0.25067170
   122  C          0.46775000       0.36357000       0.74932830
   123  C          0.42995000       0.59373000       0.21681160
   124  C          0.57005000       0.40627000       0.78318840
   125  C          0.52014000       0.50102000       0.19469150
   126  C          0.47986000       0.49898000       0.80530850
   127  C          0.70624000       0.45312000       0.20769150
   128  C          0.29376000       0.54688000       0.79230850
   129  C          0.80915000       0.49163000       0.24148160
   130  C          0.19085000       0.50837000       0.75851840
   131  B          0.64525000       0.19653000       0.09976190
   132  B          0.35475000       0.80347000       0.90023810
   133  B          0.61615000       0.35883000       0.13981190
   134  B          0.38385000       0.64117000       0.86018810
   135  H          0.27348200       0.27148800       0.05715100
   136  H          0.72651800       0.72851200       0.94284900
   137  H          0.08073300       0.16368000       0.04330000
   138  H          0.91926700       0.83632000       0.95670000
   139  H          0.18011700       0.97263800       0.06304000
   140  H          0.81988300       0.02736200       0.93696000
   141  H          0.46825200       0.79573800       0.09717900
   142  H          0.53174800       0.20426200       0.90282100
   143  H          0.76633100       0.74136300       0.12732300
   144  H          0.23366900       0.25863700       0.87267700
   145  H          0.93518700       0.86655000       0.13791400
   146  H          0.06481300       0.13345000       0.86208600
   147  H         -0.00582300       0.24048300       0.17255000
   148  H          0.00582300       0.75951700       0.82745000
   149  H          0.18379800       0.29414200       0.22952300
   150  H          0.81620200       0.70585800       0.77047700
   151  H          0.07540400       0.45159400       0.27056200
   152  H          0.92459600       0.54840600       0.72943800
   153  H          0.77634500       0.62186400       0.28522600
   154  H          0.22365500       0.37813600       0.71477400
   155  H          0.47070000       0.70193500       0.26595100
   156  H          0.52930000       0.29806500       0.73404900
   157  H          0.30222600       0.62867800       0.20976900
   158  H          0.69777400       0.37132200       0.79023100
   159  O          0.08097000       0.79774000       0.25462000
   160  O          0.91903000       0.20226000       0.74538000
   161  C          0.77773000       0.87384000       0.29313000
   162  C          0.22227000       0.12616000       0.70687000
   163  C          0.97141000       0.88115000       0.26893000
   164  C          0.02859000       0.11885000       0.73107000
   165  C          0.02899000       0.98115000       0.26043000
   166  C          0.97101000       0.01885000       0.73957000
   167  H          0.69466800       0.94294700       0.27777800
   168  H          0.30533200       0.05705300       0.72222200
   169  H          0.74779200       0.81676700       0.27825300
   170  H          0.25220800       0.18323300       0.72174700
   171  H          0.76434200       0.85684300       0.33914400
   172  H          0.23565800       0.14315700       0.66085600
   173  H          0.95062200       0.02389600       0.28935100
   174  H          0.04937800       0.97610400       0.71064900
   175  H          0.15658400       0.96512500       0.26917200
   176  H          0.84341600       0.03487500       0.73082800
   177  H          0.01814600       0.02211900       0.21707700
   178  H          0.98185400       0.97788100       0.78292300
