data_ZEHSEN
_symmetry_space_group_name_H-M    'P1'
_symmetry_Int_Tables_number       1
loop_
_symmetry_equiv_pos_site_id
_symmetry_equiv_pos_as_xyz
1 x,y,z
_cell_length_a                   9.25106
_cell_length_b                   7.86184
_cell_length_c                   23.92011
_cell_angle_alpha                90.0
_cell_angle_beta                 90.0
_cell_angle_gamma                90.0
loop_
_atom_site_label
_atom_site_type_symbol
_atom_site_fract_x
_atom_site_fract_y
_atom_site_fract_z
     1  I          0.00000000       0.83085600       0.37670815
     2  I         -0.00000000       0.16914400       0.87670815
     3  I          0.00000000       0.83085600       0.12329185
     4  I         -0.00000000       0.16914400       0.62329185
     5  I          0.50000000       0.33085600       0.37670815
     6  I          0.50000000       0.66914400       0.87670815
     7  I          0.50000000       0.33085600       0.12329185
     8  I          0.50000000       0.66914400       0.62329185
     9  C         -0.00000000       0.05747000       0.41712000
    10  C          0.00000000       0.94253000       0.91712000
    11  C         -0.00000000       0.05747000       0.08288000
    12  C          0.00000000       0.94253000       0.58288000
    13  C          0.50000000       0.55747000       0.41712000
    14  C          0.50000000       0.44253000       0.91712000
    15  C          0.50000000       0.55747000       0.08288000
    16  C          0.50000000       0.44253000       0.58288000
    17  C         -0.00000000       0.19007000       0.43882000
    18  C         -0.00000000       0.80993000       0.93882000
    19  C          0.00000000       0.19007000       0.06118000
    20  C          0.00000000       0.80993000       0.56118000
    21  C          0.50000000       0.69007000       0.43882000
    22  C          0.50000000       0.30993000       0.93882000
    23  C          0.50000000       0.69007000       0.06118000
    24  C          0.50000000       0.30993000       0.56118000
    25  C          0.00000000       0.35016000       0.46902000
    26  C          0.00000000       0.64984000       0.96902000
    27  C          0.00000000       0.35016000       0.03098000
    28  C         -0.00000000       0.64984000       0.53098000
    29  C          0.50000000       0.85016000       0.46902000
    30  C          0.50000000       0.14984000       0.96902000
    31  C          0.50000000       0.85016000       0.03098000
    32  C          0.50000000       0.14984000       0.53098000
    33  C          0.12994000       0.42644000       0.48452180
    34  C          0.87006000       0.57356000       0.98452180
    35  C          0.87006000       0.42644000       0.01547820
    36  C          0.12994000       0.57356000       0.51547820
    37  C          0.62994000       0.92644000       0.48452180
    38  C          0.37006000       0.07356000       0.98452180
    39  C          0.37006000       0.92644000       0.01547820
    40  C          0.62994000       0.07356000       0.51547820
    41  C          0.87006000       0.57356000       0.51547820
    42  C          0.12994000       0.42644000       0.01547820
    43  C          0.12994000       0.57356000       0.98452180
    44  C          0.87006000       0.42644000       0.48452180
    45  C          0.37006000       0.07356000       0.51547820
    46  C          0.62994000       0.92644000       0.01547820
    47  C          0.62994000       0.07356000       0.98452180
    48  C          0.37006000       0.92644000       0.48452180
    49  H          0.22240000       0.37340000       0.47181500
    50  H          0.77760000       0.62660000       0.97181500
    51  H          0.77760000       0.37340000       0.02818500
    52  H          0.22240000       0.62660000       0.52818500
    53  H          0.72240000       0.87340000       0.47181500
    54  H          0.27760000       0.12660000       0.97181500
    55  H          0.27760000       0.87340000       0.02818500
    56  H          0.72240000       0.12660000       0.52818500
    57  H          0.77760000       0.62660000       0.52818500
    58  H          0.22240000       0.37340000       0.02818500
    59  H          0.22240000       0.62660000       0.97181500
    60  H          0.77760000       0.37340000       0.47181500
    61  H          0.27760000       0.12660000       0.52818500
    62  H          0.72240000       0.87340000       0.02818500
    63  H          0.72240000       0.12660000       0.97181500
    64  H          0.27760000       0.87340000       0.47181500
    65  N          0.50000000       0.04995000       0.30120170
    66  N          0.50000000       0.95005000       0.80120170
    67  N          0.50000000       0.04995000       0.19879830
    68  N          0.50000000       0.95005000       0.69879830
    69  N          0.00000000       0.54995000       0.30120170
    70  N         -0.00000000       0.45005000       0.80120170
    71  N         -0.00000000       0.54995000       0.19879830
    72  N          0.00000000       0.45005000       0.69879830
    73  N          0.63135000       0.83014000       0.25000000
    74  N          0.36865000       0.16986000       0.75000000
    75  N          0.36865000       0.83014000       0.25000000
    76  N          0.63135000       0.16986000       0.75000000
    77  N          0.13135000       0.33014000       0.25000000
    78  N          0.86865000       0.66986000       0.75000000
    79  N          0.86865000       0.33014000       0.25000000
    80  N          0.13135000       0.66986000       0.75000000
    81  C          0.62874000       0.94015000       0.29976190
    82  C          0.37126000       0.05985000       0.79976190
    83  C          0.37126000       0.94015000       0.20023810
    84  C          0.62874000       0.05985000       0.70023810
    85  C          0.12874000       0.44015000       0.29976190
    86  C          0.87126000       0.55985000       0.79976190
    87  C          0.87126000       0.44015000       0.20023810
    88  C          0.12874000       0.55985000       0.70023810
    89  C          0.37126000       0.05985000       0.70023810
    90  C          0.62874000       0.94015000       0.20023810
    91  C          0.62874000       0.05985000       0.79976190
    92  C          0.37126000       0.94015000       0.29976190
    93  C          0.87126000       0.55985000       0.70023810
    94  C          0.12874000       0.44015000       0.20023810
    95  C          0.12874000       0.55985000       0.79976190
    96  C          0.87126000       0.44015000       0.29976190
    97  H          0.63340000       0.87160000       0.32941600
    98  H          0.36660000       0.12840000       0.82941600
    99  H          0.36660000       0.87160000       0.17058400
   100  H          0.63340000       0.12840000       0.67058400
   101  H          0.13340000       0.37160000       0.32941600
   102  H          0.86660000       0.62840000       0.82941600
   103  H          0.86660000       0.37160000       0.17058400
   104  H          0.13340000       0.62840000       0.67058400
   105  H          0.36660000       0.12840000       0.67058400
   106  H          0.63340000       0.87160000       0.17058400
   107  H          0.63340000       0.12840000       0.82941600
   108  H          0.36660000       0.87160000       0.32941600
   109  H          0.86660000       0.62840000       0.67058400
   110  H          0.13340000       0.37160000       0.17058400
   111  H          0.13340000       0.62840000       0.82941600
   112  H          0.86660000       0.37160000       0.32941600
   113  H          0.72430000       0.01750000       0.29911300
   114  H          0.27570000      -0.01750000       0.79911300
   115  H          0.27570000       0.01750000       0.20088700
   116  H          0.72430000      -0.01750000       0.70088700
   117  H          0.22430000       0.51750000       0.29911300
   118  H          0.77570000       0.48250000       0.79911300
   119  H          0.77570000       0.51750000       0.20088700
   120  H          0.22430000       0.48250000       0.70088700
   121  H          0.27570000      -0.01750000       0.70088700
   122  H          0.72430000       0.01750000       0.20088700
   123  H          0.72430000      -0.01750000       0.79911300
   124  H          0.27570000       0.01750000       0.29911300
   125  H          0.77570000       0.48250000       0.70088700
   126  H          0.22430000       0.51750000       0.20088700
   127  H          0.22430000       0.48250000       0.79911300
   128  H          0.77570000       0.51750000       0.29911300
   129  C          0.50000000       0.72748800       0.25000000
   130  C          0.50000000       0.27251200       0.75000000
   131  C          0.00000000       0.22748800       0.25000000
   132  C          0.00000000       0.77251200       0.75000000
   133  H          0.50000000       0.66150000       0.22220000
   134  H          0.50000000       0.33850000       0.72220000
   135  H          0.50000000       0.66150000       0.27780000
   136  H          0.50000000       0.33850000       0.77780000
   137  H          0.00000000       0.16150000       0.22220000
   138  H          0.00000000       0.83850000       0.72220000
   139  H         -0.00000000       0.16150000       0.27780000
   140  H          0.00000000       0.83850000       0.77780000
   141  C          0.50000000       0.15128000       0.25000000
   142  C          0.50000000       0.84872000       0.75000000
   143  C          0.00000000       0.65128000       0.25000000
   144  C          0.00000000       0.34872000       0.75000000
   145  H          0.59650000       0.23060000       0.25000000
   146  H          0.40350000       0.76940000       0.75000000
   147  H          0.40350000       0.23060000       0.25000000
   148  H          0.59650000       0.76940000       0.75000000
   149  H          0.09650000       0.73060000       0.25000000
   150  H          0.90350000       0.26940000       0.75000000
   151  H          0.90350000       0.73060000       0.25000000
   152  H          0.09650000       0.26940000       0.75000000
