data_ZEHSAJ
_symmetry_space_group_name_H-M    'P1'
_symmetry_Int_Tables_number       1
loop_
_symmetry_equiv_pos_site_id
_symmetry_equiv_pos_as_xyz
1 x,y,z
_cell_length_a                   4.21012
_cell_length_b                   14.02937
_cell_length_c                   11.69626
_cell_angle_alpha                90.0
_cell_angle_beta                 90.5935
_cell_angle_gamma                90.0
loop_
_atom_site_label
_atom_site_type_symbol
_atom_site_fract_x
_atom_site_fract_y
_atom_site_fract_z
     1  I          0.08445600       0.59703219       0.80183300
     2  I          0.91554400       0.09703219       0.19816700
     3  I          0.91554400       0.40296781       0.19816700
     4  I          0.08445600       0.90296781       0.80183300
     5  C          0.93079000       0.48973000       0.70164000
     6  C          0.06921000       0.98973000       0.29836000
     7  C          0.06921000       0.51027000       0.29836000
     8  C          0.93079000       0.01027000       0.70164000
     9  C          0.83931100       0.42333000       0.64714000
    10  C          0.16068900       0.92333000       0.35286000
    11  C          0.16068900       0.57667000       0.35286000
    12  C          0.83931100       0.07667000       0.64714000
    13  C          0.73501000       0.33673000       0.59284000
    14  C          0.26499000       0.83673000       0.40716000
    15  C          0.26499000       0.66327000       0.40716000
    16  C          0.73501000       0.16327000       0.59284000
    17  C          0.54721000       0.33613000       0.49444000
    18  C          0.45279000       0.83613000       0.50556000
    19  C          0.45279000       0.66387000       0.50556000
    20  C          0.54721000       0.16387000       0.49444000
    21  H          0.47411000       0.39630000       0.46440000
    22  H          0.52589000       0.89630000       0.53560000
    23  H          0.52589000       0.60370000       0.53560000
    24  H          0.47411000       0.10370000       0.46440000
    25  C          0.45511700       0.25000000       0.44616000
    26  C          0.54488300       0.75000000       0.55384000
    27  H          0.33013000       0.25000000       0.38550000
    28  H          0.66987000       0.75000000       0.61450000
    29  C          0.83261500       0.25000000       0.63976000
    30  C          0.16738500       0.75000000       0.36024000
    31  H          0.94112000       0.25000000       0.70050000
    32  H          0.05888000       0.75000000       0.29950000
    33  O          0.70311000       0.25000000       0.04504000
    34  O          0.29689000       0.75000000       0.95496000
    35  C          0.52231400       0.25000000       0.96315000
    36  C          0.47768600       0.75000000       0.03685000
    37  C          0.40871400       0.34164000       0.91145000
    38  C          0.59128600       0.84164000       0.08855000
    39  C          0.59128600       0.65836000       0.08855000
    40  C          0.40871400       0.15836000       0.91145000
    41  H          0.51313000       0.39740000       0.94150000
    42  H          0.48687000       0.89740000       0.05850000
    43  H          0.48687000       0.60260000       0.05850000
    44  H          0.51313000       0.10260000       0.94150000
    45  H          0.47914000       0.34450000       0.83560000
    46  H          0.52086000       0.84450000       0.16440000
    47  H          0.52086000       0.65550000       0.16440000
    48  H          0.47914000       0.15550000       0.83560000
    49  H          0.18512000       0.34940000       0.90540000
    50  H          0.81488000       0.84940000       0.09460000
    51  H          0.81488000       0.65060000       0.09460000
    52  H          0.18512000       0.15060000       0.90540000
    53  H          0.51313000       0.10340000       0.94150000
    54  H          0.48687000       0.60340000       0.05850000
    55  H          0.48687000       0.89660000       0.05850000
    56  H          0.51313000       0.39660000       0.94150000
    57  H          0.47914000       0.15650000       0.83560000
    58  H          0.52086000       0.65650000       0.16440000
    59  H          0.52086000       0.84350000       0.16440000
    60  H          0.47914000       0.34350000       0.83560000
    61  H          0.18512000       0.15140000       0.90540000
    62  H          0.81488000       0.65140000       0.09460000
    63  H          0.81488000       0.84860000       0.09460000
    64  H          0.18512000       0.34860000       0.90540000
