data_ZEJVET
_symmetry_space_group_name_H-M    'P1'
_symmetry_Int_Tables_number       1
loop_
_symmetry_equiv_pos_site_id
_symmetry_equiv_pos_as_xyz
1 x,y,z
_cell_length_a                   8.30238
_cell_length_b                   10.07929
_cell_length_c                   10.10529
_cell_angle_alpha                116.9663
_cell_angle_beta                 105.4812
_cell_angle_gamma                92.87101
loop_
_atom_site_label
_atom_site_type_symbol
_atom_site_fract_x
_atom_site_fract_y
_atom_site_fract_z
     1  C          0.29137000       0.59835000       0.64325000
     2  C          0.70863000       0.40165000       0.35675000
     3  H          0.30503100       0.54444200       0.54536300
     4  H          0.69496900       0.45555800       0.45463700
     5  C          0.38966000       0.74265000       0.75015000
     6  C          0.61034000       0.25735000       0.24985000
     7  H          0.46967200       0.78684400       0.72516400
     8  H          0.53032800       0.21315600       0.27483600
     9  C          0.36555000       0.81804000       0.89294000
    10  C          0.63445000       0.18196000       0.10706000
    11  C          0.24575000       0.75145000       0.92795000
    12  C          0.75425000       0.24855000       0.07205000
    13  H          0.22868900       0.80279500       0.02463900
    14  H          0.77131100       0.19720500       0.97536100
    15  C          0.15256000       0.61006000       0.81996000
    16  C          0.84744000       0.38994000       0.18004000
    17  H          0.07148400       0.56392400       0.84227800
    18  H          0.92851600       0.43607600       0.15772200
    19  N          0.17806000       0.53784000       0.68165000
    20  N          0.82194000       0.46216000       0.31835000
    21  H          0.11852600       0.44831500       0.61447600
    22  H          0.88147400       0.55168500       0.38552400
    23  N          0.46625000       0.96444000       0.02204000
    24  N          0.53375000       0.03556000       0.97796000
    25  C          0.21905000       0.08184000       0.65834000
    26  C          0.78095000       0.91816000       0.34166000
    27  H          0.20169400       0.00709900       0.55567600
    28  H          0.79830600      -0.00709900       0.44432400
    29  C          0.32505000       0.21965000       0.71984000
    30  C          0.67495000       0.78035000       0.28016000
    31  H          0.37722700       0.24080200       0.65886500
    32  H          0.62277300       0.75919800       0.34113500
    33  C          0.35184000       0.32514000       0.87344000
    34  C          0.64816000       0.67486000       0.12656000
    35  C          0.27105000       0.29564000       0.96284000
    36  C          0.72895000       0.70436000       0.03716000
    37  H          0.28842100       0.36771400       0.06653900
    38  H          0.71157900       0.63228600       0.93346100
    39  C          0.16315000       0.15584000       0.89435000
    40  C          0.83685000       0.84416000       0.10565000
    41  H          0.10680100       0.13281300       0.95175200
    42  H          0.89319900       0.86718700       0.04824800
    43  N          0.14084000       0.05523000       0.74614000
    44  N          0.85916000       0.94477000       0.25386000
    45  H          0.07313700       0.96921700       0.70476300
    46  H          0.92686300       0.03078300       0.29523700
    47  N          0.46014000       0.47023000       0.93033000
    48  N          0.53986000       0.52977000       0.06967000
    49  N          0.15144000       0.21804000       0.29594000
    50  N          0.84856000       0.78196000       0.70406000
    51  O          0.07454000       0.23273000       0.39413000
    52  O          0.92546000       0.76727000       0.60587000
    53  O          0.11755000       0.09584000       0.17414000
    54  O          0.88245000       0.90416000       0.82586000
    55  O          0.24126000       0.32704000       0.31144000
    56  O          0.75874000       0.67296000       0.68856000
    57  Cl         0.22108130       0.71463110       0.30697110
    58  Cl         0.77891870       0.28536890       0.69302890
    59  O          0.09524000       0.72044000       0.38094000
    60  O          0.90476000       0.27956000       0.61906000
    61  O          0.26426000       0.85774000       0.31605000
    62  O          0.73574000       0.14226000       0.68395000
    63  O          0.36466000       0.67197000       0.37627000
    64  O          0.63534000       0.32803000       0.62373000
    65  O          0.15367000       0.60595000       0.14665000
    66  O          0.84633000       0.39405000       0.85335000
