data_ZEKYIA
_symmetry_space_group_name_H-M    'P1'
_symmetry_Int_Tables_number       1
loop_
_symmetry_equiv_pos_site_id
_symmetry_equiv_pos_as_xyz
1 x,y,z
_cell_length_a                   8.18002
_cell_length_b                   8.25622
_cell_length_c                   10.88122
_cell_angle_alpha                79.53801
_cell_angle_beta                 89.02501
_cell_angle_gamma                83.73901
loop_
_atom_site_label
_atom_site_type_symbol
_atom_site_fract_x
_atom_site_fract_y
_atom_site_fract_z
     1  C          0.51562000       0.76732000       0.16869160
     2  C          0.48438000       0.23268000       0.83130840
     3  C          0.34694190       0.85192000       0.18997160
     4  C          0.65305810       0.14808000       0.81002840
     5  C          0.26962000       0.96482000       0.09211160
     6  C          0.73038000       0.03518000       0.90788840
     7  H          0.32010000       0.98170000       0.01430000
     8  H          0.67990000       0.01830000       0.98570000
     9  C          0.11932000       0.05242000       0.10819170
    10  C          0.88068000       0.94758000       0.89180830
    11  H          0.06970000       0.13000000       0.04310000
    12  H          0.93030000       0.87000000       0.95690000
    13  C          0.04512000       0.02132000       0.22350170
    14  C          0.95488000       0.97868000       0.77649830
    15  C          0.11482000       0.90782000       0.32234160
    16  C          0.88518000       0.09218000       0.67765840
    17  H          0.06130000       0.88810000       0.39880000
    18  H          0.93870000       0.11190000       0.60120000
    19  C          0.26672000       0.82412000       0.30450150
    20  C          0.73328000       0.17588000       0.69549850
    21  Cl         0.35361600       0.68039600       0.42806400
    22  Cl         0.64638400       0.31960400       0.57193600
    23  N          0.88572810       0.11432000       0.24249160
    24  N          0.11427190       0.88568000       0.75750840
    25  O          0.63082160       0.79852000       0.22974150
    26  O          0.36917840       0.20148000       0.77025850
    27  O          0.52453150       0.67754160       0.08734120
    28  O          0.47546850       0.32245840       0.91265880
    29  H          0.61980000       0.63680000       0.08200000
    30  H          0.38020000       0.36320000       0.91800000
    31  O          0.82354810       0.21322000       0.15422160
    32  O          0.17645190       0.78678000       0.84577840
    33  O          0.82353810       0.09032000       0.34589160
    34  O          0.17646190       0.90968000       0.65410840
    35  C          0.01802000       0.44272000       0.78621150
    36  C          0.98198000       0.55728000       0.21378850
    37  C          0.87433190       0.56362000       0.73745150
    38  C          0.12566810       0.43638000       0.26254850
    39  C          0.87242000       0.64822000       0.61449170
    40  C          0.12758000       0.35178000       0.38550830
    41  H          0.96130000       0.62890000       0.56270000
    42  H          0.03870000       0.37110000       0.43730000
    43  C          0.74042000       0.76032000       0.56825190
    44  C          0.25958000       0.23968000       0.43174810
    45  H          0.74020000       0.81540000       0.48570000
    46  H          0.25980000       0.18460000       0.51430000
    47  C          0.60882000       0.79022000       0.64492190
    48  C          0.39118000       0.20978000       0.35507810
    49  H          0.52070000       0.86710000       0.61420000
    50  H          0.47930000       0.13290000       0.38580000
    51  C          0.60682000       0.70712000       0.76673180
    52  C          0.39318000       0.29288000       0.23326820
    53  H          0.51710000       0.72660000       0.81780000
    54  H          0.48290000       0.27340000       0.18220000
    55  C          0.73851190       0.59502000       0.81238150
    56  C          0.26148810       0.40498000       0.18761850
    57  N          0.72820190       0.50272000       0.93991140
    58  N          0.27179810       0.49728000       0.06008860
    59  O          0.03456150       0.38090170       0.89660120
    60  O          0.96543850       0.61909830       0.10339880
    61  O          0.12290170       0.40972000       0.70109130
    62  O          0.87709830       0.59028000       0.29890870
    63  H          0.82130000       0.44930000       0.96220000
    64  H          0.17870000       0.55070000       0.03780000
    65  H          0.69630000       0.55730000      -0.01180000
    66  H          0.30370000       0.44270000       0.01180000
    67  H          0.20140000       0.33840000       0.73630000
    68  H          0.79860000       0.66160000       0.26370000
