data_ZELNIR
_symmetry_space_group_name_H-M    'P1'
_symmetry_Int_Tables_number       1
loop_
_symmetry_equiv_pos_site_id
_symmetry_equiv_pos_as_xyz
1 x,y,z
_cell_length_a                   9.00724
_cell_length_b                   6.93373
_cell_length_c                   13.56838
_cell_angle_alpha                90.0
_cell_angle_beta                 93.3314
_cell_angle_gamma                90.0
loop_
_atom_site_label
_atom_site_type_symbol
_atom_site_fract_x
_atom_site_fract_y
_atom_site_fract_z
     1  C          0.23530170       0.33402000       0.41367110
     2  C          0.76469830       0.83402000       0.08632890
     3  C          0.76469830       0.66598000       0.58632890
     4  C          0.23530170       0.16598000       0.91367110
     5  O          0.11059120       0.28643160       0.38580900
     6  O          0.88940880       0.78643160       0.11419100
     7  O          0.88940880       0.71356840       0.61419100
     8  O          0.11059120       0.21356840       0.88580900
     9  O          0.27874140       0.51253160       0.43029100
    10  O          0.72125860       0.01253160       0.06970900
    11  O          0.72125860       0.48746840       0.56970900
    12  O          0.27874140      -0.01253160       0.93029100
    13  H          0.20730000       0.58730000       0.42601700
    14  H          0.79270000       0.08730000       0.07398300
    15  H          0.79270000       0.41270000       0.57398300
    16  H          0.20730000       0.91270000       0.92601700
    17  C          0.35929170       0.19102000       0.43908120
    18  C          0.64070830       0.69102000       0.06091880
    19  C          0.64070830       0.80898000       0.56091880
    20  C          0.35929170       0.30898000       0.93908120
    21  H          0.37099500       0.18392500       0.51125100
    22  H          0.62900500       0.68392500       0.98874900
    23  H          0.62900500       0.81607500       0.48874900
    24  H          0.37099500       0.31607500       0.01125100
    25  O          0.32333130       0.00366160       0.40450900
    26  O          0.67666870       0.50366160       0.09549100
    27  O          0.67666870      -0.00366160       0.59549100
    28  O          0.32333130       0.49633840       0.90450900
    29  H          0.23620000       0.97470000       0.41811500
    30  H          0.76380000       0.47470000       0.08188500
    31  H          0.76380000       0.02530000       0.58188500
    32  H          0.23620000       0.52530000       0.91811500
    33  C          0.50942170       0.24852000       0.40229120
    34  C          0.49057830       0.74852000       0.09770880
    35  C          0.49057830       0.75148000       0.59770880
    36  C          0.50942170       0.25148000       0.90229120
    37  H          0.54642300       0.35866700       0.44035700
    38  H          0.45357700       0.85866700       0.05964300
    39  H          0.45357700       0.64133300       0.55964300
    40  H          0.54642300       0.14133300       0.94035700
    41  H          0.57852500       0.14302100       0.41526300
    42  H          0.42147500       0.64302100       0.08473700
    43  H          0.42147500       0.85697900       0.58473700
    44  H          0.57852500       0.35697900       0.91526300
    45  C          0.50927160       0.29862000       0.29519120
    46  C          0.49072840       0.79862000       0.20480880
    47  C          0.49072840       0.70138000       0.70480880
    48  C          0.50927160       0.20138000       0.79519120
    49  O          0.40087120       0.31152000       0.23937900
    50  O          0.59912880       0.81152000       0.26062100
    51  O          0.59912880       0.68848000       0.76062100
    52  O          0.40087120       0.18848000       0.73937900
    53  O          0.64561130       0.33212000       0.26829100
    54  O          0.35438870       0.83212000       0.23170900
    55  O          0.35438870       0.66788000       0.73170900
    56  O          0.64561130       0.16788000       0.76829100
    57  H          0.64230000       0.37540000       0.20651900
    58  H          0.35770000       0.87540000       0.29348100
    59  H          0.35770000       0.62460000       0.79348100
    60  H          0.64230000       0.12460000       0.70651900
    61  O          0.08710120       0.78288160       0.41765100
    62  O          0.91289880       0.28288160       0.08234900
    63  O          0.91289880       0.21711840       0.58234900
    64  O          0.08710120       0.71711840       0.91765100
    65  C          0.95872830       0.78622000       0.37639120
    66  C          0.04127170       0.28622000       0.12360880
    67  C          0.04127170       0.21378000       0.62360880
    68  C          0.95872830       0.71378000       0.87639120
    69  N          0.88684810       0.62412000       0.35287130
    70  N          0.11315190       0.12412000       0.14712870
    71  N          0.11315190       0.37588000       0.64712870
    72  N          0.88684810       0.87588000       0.85287130
    73  H          0.93580000       0.52330000       0.36081600
    74  H          0.06420000       0.02330000       0.13918400
    75  H          0.06420000       0.47670000       0.63918400
    76  H          0.93580000       0.97670000       0.86081600
    77  H          0.80070000       0.62630000       0.32111500
    78  H          0.19930000       0.12630000       0.17888500
    79  H          0.19930000       0.37370000       0.67888500
    80  H          0.80070000       0.87370000       0.82111500
    81  N          0.88931820       0.95342000       0.35903130
    82  N          0.11068180       0.45342000       0.14096870
    83  N          0.11068180       0.04658000       0.64096870
    84  N          0.88931820       0.54658000       0.85903130
    85  H          0.93880000       0.05730000       0.37101600
    86  H          0.06120000       0.55730000       0.12898400
    87  H          0.06120000       0.94270000       0.62898400
    88  H          0.93880000       0.44270000       0.87101600
    89  H          0.80670000       0.95630000       0.32311600
    90  H          0.19330000       0.45630000       0.17688400
    91  H          0.19330000       0.04370000       0.67688400
    92  H          0.80670000       0.54370000       0.82311600
