data_ZELZOF
_symmetry_space_group_name_H-M    'P1'
_symmetry_Int_Tables_number       1
loop_
_symmetry_equiv_pos_site_id
_symmetry_equiv_pos_as_xyz
1 x,y,z
_cell_length_a                   11.9344
_cell_length_b                   12.6685
_cell_length_c                   14.2167
_cell_angle_alpha                63.792
_cell_angle_beta                 65.252
_cell_angle_gamma                63.182
loop_
_atom_site_label
_atom_site_type_symbol
_atom_site_fract_x
_atom_site_fract_y
_atom_site_fract_z
     1  S          0.01003000       0.32474000       0.60007000
     2  S          0.98997000       0.67526000       0.39993000
     3  S          0.86067000       0.25263000       0.63854000
     4  S          0.13933000       0.74737000       0.36146000
     5  O          0.78199000       0.32412000       0.56022000
     6  O          0.21801000       0.67588000       0.43978000
     7  S          0.77899000       0.31897000       0.77371000
     8  S          0.22101000       0.68103000       0.22629000
     9  C          0.15284000       0.24365000       0.50407000
    10  C          0.84716000       0.75635000       0.49593000
    11  C          0.26859000       0.24512000       0.52532000
    12  C          0.73141000       0.75488000       0.47468000
    13  C          0.26915000       0.35809000       0.51809000
    14  C          0.73085000       0.64191000       0.48191000
    15  C          0.37101000       0.36411000       0.53691000
    16  C          0.62899000       0.63589000       0.46309000
    17  C          0.47652000       0.25752000       0.55906000
    18  C          0.52348000       0.74248000       0.44094000
    19  C          0.47890000       0.14624000       0.56236000
    20  C          0.52110000       0.85376000       0.43764000
    21  C          0.37501000       0.13919000       0.54686000
    22  C          0.62499000       0.86081000       0.45314000
    23  C          0.15199000       0.31967000       0.38534000
    24  C          0.84801000       0.68033000       0.61466000
    25  C          0.26971000       0.30997000       0.30416000
    26  C          0.73029000       0.69003000       0.69584000
    27  C          0.27375000       0.37310000       0.19543000
    28  C          0.72625000       0.62690000       0.80457000
    29  C          0.15919000       0.45043000       0.16609000
    30  C          0.84081000       0.54957000       0.83391000
    31  C          0.04163000       0.46094000       0.24552000
    32  C          0.95837000       0.53906000       0.75448000
    33  C          0.03734000       0.39524000       0.35468000
    34  C          0.96266000       0.60476000       0.64532000
    35  C          0.15189000       0.11240000       0.53407000
    36  C          0.84811000       0.88760000       0.46593000
    37  C          0.15827000       0.07022000       0.45683000
    38  C          0.84173000       0.92978000       0.54317000
    39  C          0.16063000       0.94935000       0.48397000
    40  C          0.83937000       0.05065000       0.51603000
    41  C          0.15474000       0.87069000       0.58884000
    42  C          0.84526000       0.12931000       0.41116000
    43  C          0.14706000       0.91197000       0.66724000
    44  C          0.85294000       0.08803000       0.33276000
    45  C          0.14576000       0.03157000       0.64044000
    46  C          0.85424000       0.96843000       0.35956000
    47  C          0.63793000       0.25781000       0.85918000
    48  C          0.36207000       0.74219000       0.14082000
    49  C          0.63112000       0.24726000       0.97320000
    50  C          0.36888000       0.75274000       0.02680000
    51  C          0.62265000       0.35228000      -0.01107000
    52  C          0.37735000       0.64772000       0.01107000
    53  C          0.61907000       0.34807000       0.08903000
    54  C          0.38093000       0.65193000       0.91097000
    55  C          0.62121000       0.23972000       0.17613000
    56  C          0.37879000       0.76028000       0.82387000
    57  C          0.62608000       0.13650000       0.16270000
    58  C          0.37392000       0.86350000       0.83730000
    59  C          0.63188000       0.13963000       0.06148000
    60  C          0.36812000       0.86037000       0.93852000
    61  C          0.51019000       0.35144000       0.83186000
    62  C          0.48981000       0.64856000       0.16814000
    63  C          0.39270000       0.33758000       0.90860000
    64  C          0.60730000       0.66242000       0.09140000
    65  C          0.27384000       0.41826000       0.88766000
    66  C          0.72616000       0.58174000       0.11234000
    67  C          0.27037000       0.51373000       0.79075000
    68  C          0.72963000       0.48627000       0.20925000
    69  C          0.38537000       0.52829000       0.71441000
    70  C          0.61463000       0.47171000       0.28559000
    71  C          0.50485000       0.44737000       0.73446000
    72  C          0.49515000       0.55263000       0.26554000
    73  C          0.67240000       0.13287000       0.84574000
    74  C          0.32760000       0.86713000       0.15426000
    75  C          0.59382000       0.11135000       0.81125000
    76  C          0.40618000       0.88865000       0.18875000
    77  C          0.62713000      -0.00448000       0.80141000
    78  C          0.37287000       0.00448000       0.19859000
    79  C          0.73696000       0.90068000       0.82642000
    80  C          0.26304000       0.09932000       0.17358000
    81  C          0.81775000       0.92194000       0.85875000
    82  C          0.18225000       0.07806000       0.14125000
    83  C          0.78557000       0.03701000       0.86800000
    84  C          0.21443000       0.96299000       0.13200000
    85  H          0.19774000       0.43287000       0.49992000
    86  H          0.80226000       0.56713000       0.50008000
    87  H          0.36574000       0.44069000       0.53201000
    88  H          0.63426000       0.55931000       0.46799000
    89  H          0.54503000       0.26331000       0.57197000
    90  H          0.45497000       0.73669000       0.42803000
    91  H          0.55086000       0.06929000       0.57631000
    92  H          0.44914000       0.93071000       0.42369000
    93  H          0.37270000       0.06265000       0.55042000
    94  H          0.62730000       0.93735000       0.44958000
    95  H          0.35108000       0.25526000       0.32374000
    96  H          0.64892000       0.74474000       0.67626000
    97  H          0.35322000       0.36546000       0.14142000
    98  H          0.64678000       0.63454000       0.85858000
    99  H          0.16089000       0.49596000       0.09755000
   100  H          0.83911000       0.50404000       0.90245000
   101  H          0.96497000       0.51098000       0.22969000
   102  H          0.03503000       0.48902000       0.77031000
   103  H          0.95620000       0.40011000       0.41020000
   104  H          0.04380000       0.59989000       0.58980000
   105  H          0.15488000       0.12405000       0.39029000
   106  H          0.84512000       0.87595000       0.60971000
   107  H          0.15616000       0.92772000       0.42633000
   108  H          0.84384000       0.07228000       0.57367000
   109  H          0.16086000       0.78486000       0.60509000
   110  H          0.83914000       0.21514000       0.39491000
   111  H          0.13907000       0.86284000       0.74263000
   112  H          0.86093000       0.13716000       0.25737000
   113  H          0.14184000       0.05585000       0.69621000
   114  H          0.85816000       0.94415000       0.30379000
   115  H          0.61969000       0.42698000       0.92919000
   116  H          0.38031000       0.57302000       0.07081000
   117  H          0.61542000       0.41604000       0.09803000
   118  H          0.38458000       0.58396000       0.90197000
   119  H          0.62077000       0.23278000       0.24448000
   120  H          0.37923000       0.76722000       0.75552000
   121  H          0.62565000       0.06332000       0.22149000
   122  H          0.37435000       0.93668000       0.77851000
   123  H          0.63236000       0.07147000       0.05452000
   124  H          0.36764000       0.92853000       0.94548000
   125  H          0.39642000       0.27557000       0.97047000
   126  H          0.60358000       0.72443000       0.02953000
   127  H          0.19296000       0.40986000       0.94242000
   128  H          0.80704000       0.59014000       0.05758000
   129  H          0.18993000       0.56643000       0.77923000
   130  H          0.81007000       0.43357000       0.22077000
   131  H          0.39050000       0.59223000       0.64488000
   132  H          0.60950000       0.40777000       0.35512000
   133  H          0.58384000       0.46372000       0.68020000
   134  H          0.41616000       0.53628000       0.31980000
   135  H          0.51762000       0.17231000       0.79638000
   136  H          0.48238000       0.82769000       0.20362000
   137  H          0.57315000       0.97817000       0.77741000
   138  H          0.42685000       0.02183000       0.22259000
   139  H          0.76160000       0.81952000       0.82032000
   140  H          0.23840000       0.18048000       0.17968000
   141  H          0.89419000       0.85596000       0.87347000
   142  H          0.10581000       0.14404000       0.12653000
   143  H          0.84399000       0.04650000       0.89524000
   144  H          0.15601000       0.95350000       0.10476000
   145  S          0.21442000       0.20413000       0.81291000
   146  S          0.78558000       0.79587000       0.18709000
   147  C          0.08614000       0.18855000       0.89740000
   148  C          0.91386000       0.81145000       0.10260000
   149  S          0.95525000       0.17548000       0.98095000
   150  S          0.04475000       0.82452000       0.01905000
