data_ZEMNIS
_symmetry_space_group_name_H-M    'P1'
_symmetry_Int_Tables_number       1
loop_
_symmetry_equiv_pos_site_id
_symmetry_equiv_pos_as_xyz
1 x,y,z
_cell_length_a                   7.36633
_cell_length_b                   11.93347
_cell_length_c                   13.34666
_cell_angle_alpha                68.9245
_cell_angle_beta                 84.7684
_cell_angle_gamma                85.5224
loop_
_atom_site_label
_atom_site_type_symbol
_atom_site_fract_x
_atom_site_fract_y
_atom_site_fract_z
     1  I          0.65117400       0.30255300       0.86843200
     2  I          0.34882600       0.69744700       0.13156800
     3  I          0.85532400       0.10375200       0.72598200
     4  I          0.14467600       0.89624800       0.27401800
     5  F          0.91744000       0.84938000       0.90592000
     6  F          0.08256000       0.15062000       0.09408000
     7  F          0.83624000       0.76148000       0.11802000
     8  F          0.16376000       0.23852000       0.88198000
     9  F          0.66484000       0.90397000       0.21979190
    10  F          0.33516000       0.09603000       0.78020810
    11  F          0.58964000       0.13623000       0.11042000
    12  F          0.41036000       0.86377000       0.88958000
    13  C          0.71035000       0.11754000       0.94623000
    14  C          0.28965000       0.88246000       0.05377000
    15  C          0.79375000       0.04243000       0.89333000
    16  C          0.20625000       0.95757000       0.10667000
    17  C          0.83385000       0.92486000       0.95263000
    18  C          0.16615000       0.07514000       0.04737000
    19  C          0.79355000       0.87676000       0.06193000
    20  C          0.20645000       0.12324000       0.93807000
    21  C          0.70846000       0.94985000       0.11313000
    22  C          0.29154000       0.05015000       0.88687000
    23  C          0.67085000       0.06724000       0.05593000
    24  C          0.32915000       0.93276000       0.94407000
    25  N          0.54604000       0.51763000       0.62112000
    26  N          0.45396000       0.48237000       0.37888000
    27  N          0.60905000       0.56643000       0.76543000
    28  N          0.39095000       0.43357000       0.23457000
    29  C          0.52245000       0.54903000       0.51813000
    30  C          0.47755000       0.45097000       0.48187000
    31  C          0.53715000       0.66754000       0.44423000
    32  C          0.46285000       0.33246000       0.55577000
    33  H          0.51890000       0.68560000       0.37190000
    34  H          0.48110000       0.31440000       0.62810000
    35  C          0.57826000       0.75484000       0.48014000
    36  C          0.42174000       0.24516000       0.51986000
    37  H          0.58800000       0.83360000       0.43250000
    38  H          0.41200000       0.16640000       0.56750000
    39  C          0.60565000       0.72564000       0.58923000
    40  C          0.39435000       0.27436000       0.41077000
    41  C          0.58785000       0.60564000       0.65763000
    42  C          0.41215000       0.39436000       0.34237000
    43  C          0.64856000       0.80884000       0.63544000
    44  C          0.35144000       0.19116000       0.36456000
    45  H          0.66130000       0.88930000       0.59290000
    46  H          0.33870000       0.11070000       0.40710000
    47  C          0.67086000       0.77005000       0.74214000
    48  C          0.32914000       0.22995000       0.25786000
    49  H          0.69990000       0.82350000       0.77380000
    50  H          0.30010000       0.17650000       0.22620000
    51  C          0.64986000       0.64975000       0.80394000
    52  C          0.35014000       0.35025000       0.19606000
    53  H          0.66530000       0.62540000       0.87710000
    54  H          0.33470000       0.37460000       0.12290000
    55  N          0.96104000       0.35453000       0.50082000
    56  N          0.03896000       0.64547000       0.49918000
    57  N          0.90595000       0.17783000       0.47773000
    58  N          0.09405000       0.82217000       0.52227000
    59  C          0.97585000       0.47153000       0.46163000
    60  C          0.02415000       0.52847000       0.53837000
    61  C          0.94826000       0.54283000       0.35363000
    62  C          0.05174000       0.45717000       0.64637000
    63  H          0.96140000       0.62540000       0.32910000
    64  H          0.03860000       0.37460000       0.67090000
    65  C          0.90226000       0.48954000       0.28593000
    66  C          0.09774000       0.51046000       0.71407000
    67  H          0.88170000       0.53540000       0.21460000
    68  H          0.11830000       0.46460000       0.78540000
    69  C          0.88565000       0.36423000       0.32443000
    70  C          0.11435000       0.63577000       0.67557000
    71  C          0.91665000       0.30023000       0.43243000
    72  C          0.08335000       0.69977000       0.56757000
    73  C          0.84135000       0.29854000       0.26123000
    74  C          0.15865000       0.70146000       0.73877000
    75  H          0.82020000       0.33810000       0.18900000
    76  H          0.17980000       0.66190000       0.81100000
    77  C          0.82986000       0.17904000       0.30583000
    78  C          0.17014000       0.82096000       0.69417000
    79  H          0.79900000       0.13470000       0.26550000
    80  H          0.20100000       0.86530000       0.73450000
    81  C          0.86496000       0.12244000       0.41384000
    82  C          0.13504000       0.87756000       0.58616000
    83  H          0.85900000       0.03920000       0.44300000
    84  H          0.14100000       0.96080000       0.55700000
