data_ZENKOW
_symmetry_space_group_name_H-M    'P1'
_symmetry_Int_Tables_number       1
loop_
_symmetry_equiv_pos_site_id
_symmetry_equiv_pos_as_xyz
1 x,y,z
_cell_length_a                   9.98622
_cell_length_b                   12.74433
_cell_length_c                   13.12773
_cell_angle_alpha                117.36801
_cell_angle_beta                 94.92701
_cell_angle_gamma                93.27601
loop_
_atom_site_label
_atom_site_type_symbol
_atom_site_fract_x
_atom_site_fract_y
_atom_site_fract_z
     1  Cl         0.23697500       0.71243400       0.60227700
     2  Cl         0.76302500       0.28756600       0.39772300
     3  Cl         0.19364500       0.87979400       0.83242700
     4  Cl         0.80635500       0.12020600       0.16757300
     5  Cl         0.12993500       0.49559400       0.64022700
     6  Cl         0.87006500       0.50440600       0.35977300
     7  Cl         0.44487400       0.59643400       0.70395600
     8  Cl         0.55512600       0.40356600       0.29604400
     9  Cl         0.27521500       0.60452500       0.32390400
    10  Cl         0.72478500       0.39547500       0.67609600
    11  Cl         0.25694500       0.82771400       0.31695400
    12  Cl         0.74305500       0.17228600       0.68304600
    13  O          0.40323120       0.55551100       0.91285900
    14  O          0.59676880       0.44448900       0.08714100
    15  O          0.09880120       0.48192100       0.87912900
    16  O          0.90119880       0.51807900       0.12087100
    17  C          0.23190180       0.73537140       0.74326870
    18  C          0.76809820       0.26462860       0.25673130
    19  C          0.17805170       0.63257140       0.76316870
    20  C          0.82194830       0.36742860       0.23683130
    21  C          0.32913170       0.67966140       0.79425870
    22  C          0.67086830       0.32033860       0.20574130
    23  C          0.38921170       0.74476140       0.92027870
    24  C          0.61078830       0.25523860       0.07972130
    25  H          0.32881800       0.80393300       0.96464000
    26  H          0.67118200       0.19606700       0.03536000
    27  H          0.47759700       0.78829700       0.92703700
    28  H          0.52240300       0.21170300       0.07296300
    29  C          0.40897150       0.66181140       0.97266870
    30  C          0.59102850       0.33818860       0.02733130
    31  C          0.43112170       0.71655140       0.10374130
    32  C          0.56887830       0.28344860       0.89625870
    33  H          0.52916300       0.73051300       0.13107700
    34  H          0.47083700       0.26948700       0.86892300
    35  H          0.39353700       0.79396700       0.13830900
    36  H          0.60646300       0.20603300       0.86169100
    37  C          0.36202160       0.63330140       0.14090130
    38  C          0.63797840       0.36669860       0.85909870
    39  H          0.41237500       0.56478800       0.13272100
    40  H          0.58762500       0.43521200       0.86727900
    41  C          0.20819160       0.60536140       0.11477130
    42  C          0.79180840       0.39463860       0.88522870
    43  H          0.17373100       0.52139900       0.09217800
    44  H          0.82626900       0.47860100       0.90782200
    45  C          0.12750160       0.66254140       0.05597130
    46  C          0.87249840       0.33745860       0.94402870
    47  H          0.17476700       0.74144900       0.07672900
    48  H          0.82523300       0.25855100       0.92327100
    49  H          0.03827800       0.67502500       0.08469600
    50  H          0.96172200       0.32497500       0.91530400
    51  C          0.10629150       0.58878140       0.92525870
    52  C          0.89370850       0.41121860       0.07474130
    53  C          0.08578170       0.65632150       0.85590870
    54  C          0.91421830       0.34367850       0.14409130
    55  H         -0.00904600       0.63652400       0.81854400
    56  H          0.00904600       0.36347600       0.18145600
    57  H          0.09849300       0.74248300       0.91044000
    58  H          0.90150700       0.25751700       0.08956000
    59  C          0.27492170       0.67554140       0.23660130
    60  C          0.72507830       0.32445860       0.76339870
    61  Cl         0.23940500       0.21078400       0.12262300
    62  Cl         0.76059500       0.78921600       0.87737700
    63  Cl         0.19966500       0.34204300       0.36218300
    64  Cl         0.80033500       0.65795700       0.63781700
    65  Cl         0.12035500       0.97344600       0.11292300
    66  Cl         0.87964500       0.02655400       0.88707700
    67  Cl         0.44307400       0.05911400       0.18382400
    68  Cl         0.55692600       0.94088600       0.81617600
    69  Cl         0.25927400       0.02584300       0.62931400
    70  Cl         0.74072600       0.97415700       0.37068600
    71  Cl         0.20143400       0.18656400       0.85983400
    72  Cl         0.79856600       0.81343600       0.14016600
    73  C          0.23558170       0.20575140       0.25326130
    74  C          0.76441830       0.79424860       0.74673870
    75  C          0.17983160       0.09110140       0.25066130
    76  C          0.82016840       0.90889860       0.74933870
    77  C          0.32992160       0.13209140       0.28323130
    78  C          0.67007840       0.86790860       0.71676870
    79  C          0.39220160       0.17413160       0.40686140
    80  C          0.60779840       0.82586840       0.59313860
    81  H          0.45253300       0.11542400       0.40762000
    82  H          0.54746700       0.88457600       0.59238000
    83  H          0.44928300       0.25015600       0.43277700
    84  H          0.55071700       0.74984400       0.56722300
    85  C          0.29497160       0.19234130       0.49335130
    86  C          0.70502840       0.80765870       0.50664870
    87  C          0.36253160       0.25715140       0.61647130
    88  C          0.63746840       0.74284860       0.38352870
    89  H          0.43819200       0.21342300       0.62437900
    90  H          0.56180800       0.78657700       0.37562100
    91  H          0.40201000       0.33666400       0.63127800
    92  H          0.59799000       0.66333600       0.36872200
    93  C          0.27380160       0.27338130       0.70870130
    94  C          0.72619840       0.72661870       0.29129870
    95  H          0.29704000       0.34845200       0.78312100
    96  H          0.70296000       0.65154800       0.21687900
    97  C          0.12423160       0.22927130       0.67436130
    98  C          0.87576840       0.77072870       0.32563870
    99  H          0.06418700       0.27985900       0.73038400
   100  H          0.93581300       0.72014100       0.26961600
   101  C          0.06473150       0.17464140       0.54941120
   102  C          0.93526850       0.82535860       0.45058880
   103  H          0.01429100       0.09684800       0.52837300
   104  H         -0.01429100       0.90315200       0.47162700
   105  H         -0.00137100       0.22618600       0.54133300
   106  H          0.00137100       0.77381400       0.45866700
   107  C          0.16389160       0.15577130       0.46418120
   108  C          0.83610840       0.84422870       0.53581880
   109  C          0.09588160       0.09198140       0.34127130
   110  C          0.90411840       0.90801860       0.65872870
   111  H          0.01286700       0.12923200       0.33647200
   112  H         -0.01286700       0.87076800       0.66352800
   113  H          0.06766700       0.00862100       0.32224500
   114  H          0.93233300      -0.00862100       0.67775500
   115  C          0.21684160       0.16847140       0.71956130
   116  C          0.78315840       0.83152860       0.28043870
