data_ZEPBAX01
_symmetry_space_group_name_H-M    'P1'
_symmetry_Int_Tables_number       1
loop_
_symmetry_equiv_pos_site_id
_symmetry_equiv_pos_as_xyz
1 x,y,z
_cell_length_a                   8.1681
_cell_length_b                   8.2051
_cell_length_c                   13.7942
_cell_angle_alpha                84.951
_cell_angle_beta                 74.151
_cell_angle_gamma                88.931
loop_
_atom_site_label
_atom_site_type_symbol
_atom_site_fract_x
_atom_site_fract_y
_atom_site_fract_z
     1  I          0.74739700       0.18007300       0.65363200
     2  I          0.25260300       0.81992700       0.34636800
     3  I          0.84140700       0.89989300       0.78146218
     4  I          0.15859300       0.10010700       0.21853782
     5  I          0.93507700       0.63274300       0.90455200
     6  I          0.06492300       0.36725700       0.09544800
     7  N          0.37714000       0.79874000       0.74203000
     8  N          0.62286000       0.20126000       0.25797000
     9  N          0.30134000      -0.00876000       0.89713000
    10  N          0.69866000       0.00876000       0.10287000
    11  C          0.40094000       0.73835000       0.83093000
    12  C          0.59906000       0.26165000       0.16907000
    13  C          0.36335000       0.84105000       0.90913000
    14  C          0.63665000       0.15895000       0.09087000
    15  C          0.27655000       0.04525000       0.80843000
    16  C          0.72345000       0.95475000       0.19157000
    17  C          0.31674000       0.95075000       0.72583000
    18  C          0.68326000       0.04925000       0.27417000
    19  C          0.46796000       0.56895000       0.83913000
    20  C          0.53204000       0.43105000       0.16087000
    21  C          0.39146000       0.78656000       0.00963000
    22  C          0.60854000       0.21344000      -0.00963000
    23  C          0.20636000       0.21375000       0.79724000
    24  C          0.79364000       0.78625000       0.20276000
    25  C          0.30096000       0.00526000       0.62323000
    26  C          0.69904000      -0.00526000       0.37677000
    27  H          0.40350000       0.74150000       0.69230000
    28  H          0.59650000       0.25850000       0.30770000
    29  H          0.38360000       0.50760000       0.89240000
    30  H          0.61640000       0.49240000       0.10760000
    31  H          0.57950000       0.58050000       0.85230000
    32  H          0.42050000       0.41950000       0.14770000
    33  H          0.48850000       0.52260000       0.78040000
    34  H          0.51150000       0.47740000       0.21960000
    35  H          0.35360000       0.87070000       0.05740000
    36  H          0.64640000       0.12930000       0.94260000
    37  H          0.33090000       0.68190000       0.04350000
    38  H          0.66910000       0.31810000       0.95650000
    39  H          0.50880000       0.78170000      -0.00060000
    40  H          0.49120000       0.21830000       0.00060000
    41  H          0.10360000       0.20850000       0.77330000
    42  H          0.89640000       0.79150000       0.22670000
    43  H          0.17960000       0.26460000       0.85940000
    44  H          0.82040000       0.73540000       0.14060000
    45  H          0.28260000       0.28460000       0.75140000
    46  H          0.71740000       0.71540000       0.24860000
    47  H          0.32660000       0.92170000       0.57940000
    48  H          0.67340000       0.07830000       0.42060000
    49  H          0.19160000       0.04660000       0.63040000
    50  H          0.80840000       0.95340000       0.36960000
    51  H          0.37360000       0.10360000       0.59440000
    52  H          0.62640000       0.89640000       0.40560000
    53  N          0.45644000       0.59924000       0.57852000
    54  N          0.54356000       0.40076000       0.42148000
    55  C          0.62155000       0.58225000       0.52683000
    56  C          0.37845000       0.41775000       0.47317000
    57  C          0.33644000       0.51895000       0.55233000
    58  C          0.66356000       0.48105000       0.44767000
    59  C          0.74885000       0.67165000       0.56173000
    60  C          0.25115000       0.32835000       0.43827000
    61  C          0.15535000       0.54756000       0.61073000
    62  C          0.84465000       0.45244000       0.38927000
    63  H          0.77560000       0.60560000       0.61740000
    64  H          0.22440000       0.39440000       0.38260000
    65  H          0.69860000       0.77860000       0.59140000
    66  H          0.30140000       0.22140000       0.40860000
    67  H          0.84760000       0.70060000       0.50740000
    68  H          0.15240000       0.29940000       0.49260000
    69  H          0.10860000       0.64360000       0.57840000
    70  H          0.89140000       0.35640000       0.42160000
    71  H          0.09160000       0.46370000       0.61740000
    72  H          0.90840000       0.53630000       0.38260000
    73  H          0.14760000       0.57860000       0.67740000
    74  H          0.85240000       0.42140000       0.32260000
    75  H          0.22560000       0.39560000       0.38340000
    76  H          0.77440000       0.60440000       0.61660000
    77  H          0.30260000       0.22260000       0.40940000
    78  H          0.69740000       0.77740000       0.59060000
    79  H          0.15360000       0.30060000       0.49340000
    80  H          0.84640000       0.69940000       0.50660000
    81  H          0.89260000       0.35760000       0.42240000
    82  H          0.10740000       0.64240000       0.57760000
    83  H          0.90960000       0.53770000       0.38340000
    84  H          0.09040000       0.46230000       0.61660000
    85  H          0.85360000       0.42260000       0.32340000
    86  H          0.14640000       0.57740000       0.67660000
