data_ZESFEI
_symmetry_space_group_name_H-M    'P1'
_symmetry_Int_Tables_number       1
loop_
_symmetry_equiv_pos_site_id
_symmetry_equiv_pos_as_xyz
1 x,y,z
_cell_length_a                   10.0095
_cell_length_b                   25.5765
_cell_length_c                   12.7445
_cell_angle_alpha                90.0
_cell_angle_beta                 111.451
_cell_angle_gamma                90.0
loop_
_atom_site_label
_atom_site_type_symbol
_atom_site_fract_x
_atom_site_fract_y
_atom_site_fract_z
     1  N          0.01673500       0.06401100       0.10002200
     2  N          0.48326500       0.56401100       0.39997800
     3  N         -0.01673500       0.93598900       0.89997800
     4  N          0.51673500       0.43598900       0.60002200
     5  C          0.14063600       0.09211100       0.15823200
     6  C          0.35936400       0.59211100       0.34176800
     7  C          0.85936400       0.90788900       0.84176800
     8  C          0.64063600       0.40788900       0.65823200
     9  C          0.20952900       0.08521200       0.27373200
    10  C          0.29047100       0.58521200       0.22626800
    11  C          0.79047100       0.91478800       0.72626800
    12  C          0.70952900       0.41478800       0.77373200
    13  C          0.15462900       0.05021200       0.33112200
    14  C          0.34537100       0.55021200       0.16887800
    15  C          0.84537100       0.94978800       0.66887800
    16  C          0.65462900       0.44978800       0.83112200
    17  C          0.03072500       0.02219000       0.27291900
    18  C          0.46927500       0.52219000       0.22708100
    19  C          0.96927500       0.97781000       0.72708100
    20  C          0.53072500       0.47781000       0.77291900
    21  C          0.96182400       0.02909000       0.15731800
    22  C          0.53817600       0.52909000       0.34268200
    23  C          0.03817600       0.97091000       0.84268200
    24  C          0.46182400       0.47091000       0.65731800
    25  N          0.83792800       0.00091200       0.09922500
    26  N          0.66207200       0.50091200       0.40077500
    27  N          0.16207200      -0.00091200       0.90077500
    28  N          0.33792800       0.49908800       0.59922500
    29  C          0.78293100       0.96591200       0.15653500
    30  C          0.71706900       0.46591200       0.34346500
    31  C          0.21706900       0.03408800       0.84346500
    32  C          0.28293100       0.53408800       0.65653500
    33  C          0.85193800       0.95901100       0.27203500
    34  C          0.64806200       0.45901100       0.22796500
    35  C          0.14806200       0.04098900       0.72796500
    36  C          0.35193800       0.54098900       0.77203500
    37  C          0.97583700       0.98711200       0.33022500
    38  C          0.52416300       0.48711200       0.16977500
    39  C          0.02416300       0.01288800       0.66977500
    40  C          0.47583700       0.51288800       0.83022500
    41  C          0.40243700       0.93901200       0.79737800
    42  C          0.09756300       0.43901200       0.70262200
    43  C          0.59756300       0.06098800       0.20262200
    44  C          0.90243700       0.56098800       0.29737800
    45  C          0.27843700       0.91331600       0.72987800
    46  C          0.22156300       0.41331600       0.77012200
    47  C          0.72156300       0.08668400       0.27012200
    48  C          0.77843700       0.58668400       0.22987800
    49  C          0.22803200       0.87071500       0.77217000
    50  C          0.27196800       0.37071500       0.72783000
    51  C          0.77196800       0.12928500       0.22783000
    52  C          0.72803200       0.62928500       0.27217000
    53  C          0.30143400       0.85391200       0.88196900
    54  C          0.19856600       0.35391200       0.61803100
    55  C          0.69856600       0.14608800       0.11803100
    56  C          0.80143400       0.64608800       0.38196900
    57  C          0.42542800       0.87969000       0.94947800
    58  C          0.07457200       0.37969000       0.55052200
    59  C          0.57457200       0.12031000       0.05052200
    60  C          0.92542800       0.62031000       0.44947800
    61  C          0.47592600       0.92229000       0.90718000
    62  C          0.02407400       0.42229000       0.59282000
    63  C          0.52407400       0.07771000       0.09282000
    64  C          0.97592600       0.57771000       0.40718000
    65  N          0.59983000       0.94791200       0.97467200
    66  N          0.90017000       0.44791200       0.52532800
    67  N          0.40017000       0.05208800       0.02532800
    68  N          0.09983000       0.55208800       0.47467200
    69  C          0.67333100       0.93111500       0.08452700
    70  C          0.82666900       0.43111500       0.41547300
    71  C          0.32666900       0.06888500       0.91547300
    72  C          0.17333100       0.56888500       0.58452700
    73  C          0.62283900       0.88851500       0.12682100
    74  C          0.87716100       0.38851500       0.37317900
    75  C          0.37716100       0.11148500       0.87317900
    76  C          0.12283900       0.61148500       0.62682100
    77  C          0.49884100       0.86281300       0.05932400
    78  C          0.00115900       0.36281300       0.44067600
    79  C          0.50115900       0.13718700       0.94067600
    80  C         -0.00115900       0.63718700       0.55932400
    81  C          0.75046800       0.92022200       0.30655000
    82  C          0.74953200       0.42022200       0.19345000
    83  C          0.24953200       0.07977800       0.69345000
    84  C          0.25046800       0.57977800       0.80655000
    85  C          0.71036000       0.86582300       0.25664600
    86  C          0.78964000       0.36582300       0.24335400
    87  C          0.28964000       0.13417700       0.74335400
    88  C          0.21036000       0.63417700       0.75664600
    89  N          0.17677700       0.83752800       0.92632600
    90  N          0.32322300       0.33752800       0.57367400
    91  N          0.82322300       0.16247200       0.07367400
    92  N          0.67677700       0.66247200       0.42632600
    93  O          0.21405900       0.82802200       0.02625200
    94  O          0.28594100       0.32802200       0.47374800
    95  O          0.78594100       0.17197800       0.97374800
    96  O          0.71405900       0.67197800       0.52625200
    97  O          0.10486300       0.80002300       0.86444900
    98  O          0.39513700       0.30002300       0.63555100
    99  O          0.89513700       0.19997700       0.13555100
   100  O          0.60486300       0.69997700       0.36444900
   101  N          0.20847300       0.91932700       0.60204800
   102  N          0.29152700       0.41932700       0.89795200
   103  N          0.79152700       0.08067300       0.39795200
   104  N          0.70847300       0.58067300       0.10204800
   105  O          0.09075800       0.89011900       0.54875800
   106  O          0.40924200       0.39011900       0.95124200
   107  O          0.90924200       0.10988100       0.45124200
   108  O          0.59075800       0.60988100       0.04875800
   109  O          0.26105400       0.95621900       0.57155600
   110  O          0.23894600       0.45621900       0.92844400
   111  O          0.73894600       0.04378100       0.42844400
   112  O          0.76105400       0.54378100       0.07155600
   113  O          0.46405000       0.97561700       0.76136200
   114  O          0.03595000       0.47561700       0.73863800
   115  O          0.53595000       0.02438300       0.23863800
   116  O          0.96405000       0.52438300       0.26136200
   117  C          0.49608100       0.80142700       0.09176700
   118  C          0.00391900       0.30142700       0.40823300
   119  C          0.50391900       0.19857300       0.90823300
   120  C         -0.00391900       0.69857300       0.59176700
   121  C          0.63798000       0.77383100       0.09196500
   122  C          0.86202000       0.27383100       0.40803500
   123  C          0.36202000       0.22616900       0.90803500
   124  C          0.13798000       0.72616900       0.59196500
   125  C          0.47989100       0.73013200       0.90673100
   126  C          0.02010900       0.23013200       0.59326900
   127  C          0.52010900       0.26986800       0.09326900
   128  C          0.97989100       0.76986800       0.40673100
   129  C          0.61168700       0.76092900       0.96713700
   130  C          0.88831300       0.26092900       0.53286300
   131  C          0.38831300       0.23907100       0.03286300
   132  C          0.11168700       0.73907100       0.46713700
   133  H          0.97413500       0.06831100       0.02852200
   134  H          0.52586500       0.56831100       0.47147800
   135  H          0.02586500       0.93168900       0.97147800
   136  H          0.47413500       0.43168900       0.52852200
   137  H          0.17744600       0.11551300       0.11984000
   138  H          0.32255400       0.61551300       0.38016000
   139  H          0.82255400       0.88448700       0.88016000
   140  H          0.67744600       0.38448700       0.61984000
   141  H          0.29243400       0.10411500       0.31264000
   142  H          0.20756600       0.60411500       0.18736000
   143  H          0.70756600       0.89588500       0.68736000
   144  H          0.79243400       0.39588500       0.81264000
   145  H          0.20073800       0.04561700       0.40842300
   146  H          0.29926200       0.54561700       0.09157700
   147  H          0.79926200       0.95438300       0.59157700
   148  H          0.70073800       0.45438300       0.90842300
   149  H          0.02194800       0.98251600       0.40752500
   150  H          0.47805200       0.48251600       0.09247500
   151  H          0.97805200       0.01748400       0.59247500
   152  H          0.52194800       0.51748400       0.90752500
   153  H          0.14503700       0.85351900       0.72706300
   154  H          0.35496300       0.35351900       0.77293700
   155  H          0.85496300       0.14648100       0.27293700
   156  H          0.64503700       0.64648100       0.22706300
   157  H          0.79406800       0.91572200       0.38755000
   158  H          0.70593200       0.41572200       0.11245000
   159  H          0.20593200       0.08427800       0.61245000
   160  H          0.29406800       0.58427800       0.88755000
   161  H          0.66086800       0.93872200       0.29215000
   162  H          0.83913200       0.43872200       0.20785000
   163  H          0.33913200       0.06127800       0.70785000
   164  H          0.16086800       0.56127800       0.79215000
   165  H          0.64866000       0.84712300       0.28734600
   166  H          0.85134000       0.34712300       0.21265400
   167  H          0.35134000       0.15287700       0.71265400
   168  H          0.14866000       0.65287700       0.78734600
   169  H          0.79316000       0.84472300       0.26214600
   170  H          0.70684000       0.34472300       0.23785400
   171  H          0.20684000       0.15527700       0.73785400
   172  H          0.29316000       0.65527700       0.76214600
   173  H          0.48968100       0.79822700       0.16566700
   174  H          0.01031900       0.29822700       0.33433300
   175  H          0.51031900       0.20177300       0.83433300
   176  H         -0.01031900       0.70177300       0.66566700
   177  H          0.41278100       0.78452700       0.03726700
   178  H          0.08721900       0.28452700       0.46273300
   179  H          0.58721900       0.21547300       0.96273300
   180  H          0.91278100       0.71547300       0.53726700
   181  H          0.71968000       0.79703100       0.12296500
   182  H          0.78032000       0.29703100       0.37703500
   183  H          0.28032000       0.20296900       0.87703500
   184  H          0.21968000       0.70296900       0.62296500
   185  H          0.65658000       0.74213100       0.13686500
   186  H          0.84342000       0.24213100       0.36313500
   187  H          0.34342000       0.25786900       0.86313500
   188  H          0.15658000       0.75786900       0.63686500
   189  H          0.60638700       0.79352900       0.92683700
   190  H          0.89361300       0.29352900       0.57316300
   191  H          0.39361300       0.20647100       0.07316300
   192  H          0.10638700       0.70647100       0.42683700
   193  H          0.69388700       0.74172900       0.96443700
   194  H          0.80611300       0.24172900       0.53556300
   195  H          0.30611300       0.25827100       0.03556300
   196  H          0.19388700       0.75827100       0.46443700
   197  N          0.87984700       0.08421600       0.86736500
   198  N          0.62015300       0.58421600       0.63263500
   199  N          0.12015300       0.91578400       0.13263500
   200  N          0.37984700       0.41578400       0.36736500
   201  C          0.91595600       0.12612100       0.81015600
   202  C          0.58404400       0.62612100       0.68984400
   203  C          0.08404400       0.87387900       0.18984400
   204  C          0.41595600       0.37387900       0.31015600
   205  C          0.81315400       0.12811900       0.69495700
   206  C          0.68684600       0.62811900       0.80504300
   207  C          0.18684600       0.87188100       0.30504300
   208  C          0.31315400       0.37188100       0.19495700
   209  N          0.70677900       0.07832700       0.70743000
   210  N          0.79322100       0.57832700       0.79257000
   211  N          0.29322100       0.92167300       0.29257000
   212  N          0.20677900       0.42167300       0.20743000
   213  C          0.74911000       0.06363800       0.80330700
   214  C          0.75089000       0.56363800       0.69669300
   215  C          0.25089000       0.93636200       0.19669300
   216  C          0.24911000       0.43636200       0.30330700
   217  N          0.71617900       0.02912600       0.85763800
   218  N          0.78382100       0.52912600       0.64236200
   219  N          0.28382100       0.97087400       0.14236200
   220  N          0.21617900       0.47087400       0.35763800
   221  C          0.54948300       0.06473100       0.60863600
   222  C          0.95051700       0.56473100       0.89136400
   223  C          0.45051700       0.93526900       0.39136400
   224  C          0.04948300       0.43526900       0.10863600
   225  O          0.01546100       0.15522200       0.84464900
   226  O          0.48453900       0.65522200       0.65535100
   227  O         -0.01546100       0.84477800       0.15535100
   228  O          0.51546100       0.34477800       0.34464900
   229  H          0.85685400       0.12061900       0.64015700
   230  H          0.64314600       0.62061900       0.85984300
   231  H          0.14314600       0.87938100       0.35984300
   232  H          0.35685400       0.37938100       0.14015700
   233  H          0.76245400       0.16121900       0.67745700
   234  H          0.73754600       0.66121900       0.82254300
   235  H          0.23754600       0.83878100       0.32254300
   236  H          0.26245400       0.33878100       0.17745700
   237  H          0.64537900       0.00852600       0.82423800
   238  H          0.85462100       0.50852600       0.67576200
   239  H          0.35462100       0.99147400       0.17576200
   240  H          0.14537900       0.49147400       0.32423800
   241  H          0.76397900       0.02572600       0.92863800
   242  H          0.73602100       0.52572600       0.57136200
   243  H          0.23602100       0.97427400       0.07136200
   244  H          0.26397900       0.47427400       0.42863800
   245  H          0.55119000       0.07517000       0.53632200
   246  H          0.94881000       0.57517000       0.96367800
   247  H          0.44881000       0.92483000       0.46367800
   248  H          0.05119000       0.42483000       0.03632200
   249  H          0.47510000       0.08415000       0.62277000
   250  H          0.02490000       0.58415000       0.87723000
   251  H          0.52490000       0.91585000       0.37723000
   252  H          0.97510000       0.41585000       0.12277000
   253  H          0.53125000       0.02794200       0.60873000
   254  H          0.96875000       0.52794200       0.89127000
   255  H          0.46875000       0.97205800       0.39127000
   256  H          0.03125000       0.47205800       0.10873000
   257  C          0.10546700       0.72302400       0.10415100
   258  C          0.39453300       0.22302400       0.39584900
   259  C          0.89453300       0.27697600       0.89584900
   260  C          0.60546700       0.77697600       0.60415100
   261  Cl         0.15524400       0.69141000       0.00302400
   262  Cl         0.34475600       0.19141000       0.49697600
   263  Cl         0.84475600       0.30859000      -0.00302400
   264  Cl         0.65524400       0.80859000       0.50302400
   265  Cl         0.25372700       0.72881000       0.22352100
   266  Cl         0.24627300       0.22881000       0.27647900
   267  Cl         0.74627300       0.27119000       0.77647900
   268  Cl         0.75372700       0.77119000       0.72352100
   269  Cl         0.97977400       0.68591100       0.13132600
   270  Cl         0.52022600       0.18591100       0.36867400
   271  Cl         0.02022600       0.31408900       0.86867400
   272  Cl         0.47977400       0.81408900       0.63132600
   273  H          0.06616700       0.75772400       0.07695100
   274  H          0.43383300       0.25772400       0.42304900
   275  H          0.93383300       0.24227600       0.92304900
   276  H          0.56616700       0.74227600       0.57695100
