data_ZESTIA
_symmetry_space_group_name_H-M    'P1'
_symmetry_Int_Tables_number       1
loop_
_symmetry_equiv_pos_site_id
_symmetry_equiv_pos_as_xyz
1 x,y,z
_cell_length_a                   5.82679
_cell_length_b                   20.5068
_cell_length_c                   22.3053
_cell_angle_alpha                90.0
_cell_angle_beta                 90.0
_cell_angle_gamma                90.0
loop_
_atom_site_label
_atom_site_type_symbol
_atom_site_fract_x
_atom_site_fract_y
_atom_site_fract_z
     1  C          0.53041200       0.92253000       0.29343000
     2  C          0.96958800       0.07747000       0.79343000
     3  C          0.03041200       0.57747000       0.70657000
     4  C          0.46958800       0.42253000       0.20657000
     5  O          0.73268000       0.89352000       0.31242000
     6  O          0.76732000       0.10648000       0.81242000
     7  O          0.23268000       0.60648000       0.68758000
     8  O          0.26732000       0.39352000       0.18758000
     9  C          0.69741800       0.83324000       0.34544000
    10  C          0.80258200       0.16676000       0.84544000
    11  C          0.19741800       0.66676000       0.65456000
    12  C          0.30258200       0.33324000       0.15456000
    13  C          0.88551400       0.82673000       0.39133000
    14  C          0.61448600       0.17327000       0.89133000
    15  C          0.38551400       0.67327000       0.60867000
    16  C          0.11448600       0.32673000       0.10867000
    17  C          0.03861600       0.77713000       0.38883000
    18  C          0.46138400       0.22287000       0.88883000
    19  C          0.53861600       0.72287000       0.61117000
    20  C          0.96138400       0.27713000       0.11117000
    21  C          0.20661700       0.76944000       0.43164000
    22  C          0.29338300       0.23056000       0.93164000
    23  C          0.70661700       0.73056000       0.56836000
    24  C          0.79338300       0.26944000       0.06836000
    25  C          0.21531600       0.81174000       0.47904000
    26  C          0.28468400       0.18826000       0.97904000
    27  C          0.71531600       0.68826000       0.52096000
    28  C          0.78468400       0.31174000       0.02096000
    29  C          0.06201900       0.86245000       0.48264000
    30  C          0.43798100       0.13755000       0.98264000
    31  C          0.56201900       0.63755000       0.51736000
    32  C          0.93798100       0.36245000       0.01736000
    33  C          0.89611800       0.86854000       0.43884000
    34  C          0.60388200       0.13146000       0.93884000
    35  C          0.39611800       0.63146000       0.56116000
    36  C          0.10388200       0.36854000       0.06116000
    37  C          0.59161300       0.98893000       0.26763000
    38  C          0.90838700       0.01107000       0.76763000
    39  C          0.09161300       0.51107000       0.73237000
    40  C          0.40838700       0.48893000       0.23237000
    41  O          0.66019000       0.03272000       0.31322000
    42  O          0.83981000       0.96728000       0.81322000
    43  O          0.16019000       0.46728000       0.68678000
    44  O          0.33981000       0.53272000       0.18678000
    45  C          0.39441200       0.01883000       0.23462000
    46  C          0.10558800       0.98117000       0.73462000
    47  C          0.89441200       0.48117000       0.76538000
    48  C          0.60558800       0.51883000       0.26538000
    49  O          0.48588000       0.07142000       0.19702000
    50  O          0.01412000       0.92858000       0.69702000
    51  O         -0.01412000       0.42858000       0.80298000
    52  O          0.51412000       0.57142000       0.30298000
    53  S          0.40963000       0.14511000       0.20531000
    54  S          0.09037000       0.85489000       0.70531000
    55  S          0.90963000       0.35489000       0.79469000
    56  S          0.59037000       0.64511000       0.29469000
    57  C          0.61301800       0.17754000       0.25414000
    58  C          0.88698200       0.82246000       0.75414000
    59  C          0.11301800       0.32246000       0.74586000
    60  C          0.38698200       0.67754000       0.24586000
    61  O          0.19071100       0.14793000       0.23233000
    62  O          0.30928900       0.85207000       0.73233000
    63  O          0.69071100       0.35207000       0.76767000
    64  O          0.80928900       0.64793000       0.26767000
    65  O          0.43871300       0.17252000       0.14802000
    66  O          0.06128700       0.82748000       0.64802000
    67  O          0.93871300       0.32748000       0.85198000
    68  O          0.56128700       0.67252000       0.35198000
    69  C          0.28031100       0.97073000       0.19233000
    70  C          0.21968900       0.02927000       0.69233000
    71  C          0.78031100       0.52927000       0.80767000
    72  C          0.71968900       0.47073000       0.30767000
    73  O          0.07028000       0.00122000       0.17062000
    74  O          0.42972000      -0.00122000       0.67062000
    75  O          0.57028000       0.49878000       0.82938000
    76  O          0.92972000       0.50122000       0.32938000
    77  S          0.00934000       0.00371000       0.10151000
    78  S          0.49066000      -0.00371000       0.60151000
    79  S          0.50934000       0.49629000       0.89849000
    80  S         -0.00934000       0.50371000       0.39849000
    81  C          0.93571800       0.08544000       0.09394000
    82  C          0.56428200       0.91456000       0.59394000
    83  C          0.43571800       0.41456000       0.90606000
    84  C          0.06428200       0.58544000       0.40606000
    85  O          0.80961400       0.96463000       0.09383000
    86  O          0.69038600       0.03537000       0.59383000
    87  O          0.30961400       0.53537000       0.90617000
    88  O          0.19038600       0.46463000       0.40617000
    89  O          0.20701500       0.98984000       0.06742000
    90  O          0.29298500       0.01016000       0.56742000
    91  O          0.70701500       0.51016000       0.93258000
    92  O          0.79298500       0.48984000       0.43258000
    93  C          0.22091200       0.90883000       0.22773000
    94  C          0.27908800       0.09117000       0.72773000
    95  C          0.72091200       0.59117000       0.77227000
    96  C          0.77908800       0.40883000       0.27227000
    97  C          0.09201300       0.85853000       0.19273000
    98  C          0.40798700       0.14147000       0.69273000
    99  C          0.59201300       0.64147000       0.80727000
   100  C          0.90798700       0.35853000       0.30727000
   101  O          0.21411000       0.84802000       0.13642000
   102  O          0.28589000       0.15198000       0.63642000
   103  O          0.71411000       0.65198000       0.86358000
   104  O          0.78589000       0.34802000       0.36358000
   105  S          0.14524000       0.78891000       0.09521000
   106  S          0.35476000       0.21109000       0.59521000
   107  S          0.64524000       0.71109000       0.90479000
   108  S          0.85476000       0.28891000       0.40479000
   109  C          0.86951900       0.80735000       0.06995000
   110  C          0.63048100       0.19265000       0.56995000
   111  C          0.36951900       0.69265000       0.93005000
   112  C          0.13048100       0.30735000       0.43005000
   113  O          0.14221800       0.73213000       0.12963000
   114  O          0.35778200       0.26787000       0.62963000
   115  O          0.64221800       0.76787000       0.87037000
   116  O          0.85778200       0.23213000       0.37037000
   117  O          0.30261500       0.79374000       0.04593000
   118  O          0.19738500       0.20626000       0.54593000
   119  O          0.80261500       0.70626000       0.95407000
   120  O          0.69738500       0.29374000       0.45407000
   121  O          0.43188000       0.88192000       0.24822000
   122  O          0.06812000       0.11808000       0.74822000
   123  O          0.93188000       0.61808000       0.75178000
   124  O          0.56812000       0.38192000       0.25178000
   125  H          0.42391200       0.92743000       0.32713000
   126  H          0.07608800       0.07257000       0.82713000
   127  H          0.92391200       0.57257000       0.67287000
   128  H          0.57608800       0.42743000       0.17287000
   129  H          0.70091800       0.79644000       0.31824000
   130  H          0.79908200       0.20356000       0.81824000
   131  H          0.20091800       0.70356000       0.68176000
   132  H          0.29908200       0.29644000       0.18176000
   133  H          0.54911800       0.83404000       0.36514000
   134  H          0.95088200       0.16596000       0.86514000
   135  H          0.04911800       0.66596000       0.63486000
   136  H          0.45088200       0.33404000       0.13486000
   137  H          0.03001600       0.74753000       0.35733000
   138  H          0.46998400       0.25247000       0.85733000
   139  H          0.53001600       0.75247000       0.64267000
   140  H          0.96998400       0.24753000       0.14267000
   141  H          0.31311700       0.73584000       0.42834000
   142  H          0.18688300       0.26416000       0.92834000
   143  H          0.81311700       0.76416000       0.57166000
   144  H          0.68688300       0.23584000       0.07166000
   145  H          0.32521600       0.80614000       0.50884000
   146  H          0.17478400       0.19386000       0.00884000
   147  H          0.82521600       0.69386000       0.49116000
   148  H          0.67478400       0.30614000       0.99116000
   149  H          0.06991900       0.89215000       0.51404000
   150  H          0.43008100       0.10785000       0.01404000
   151  H          0.56991900       0.60785000       0.48596000
   152  H          0.93008100       0.39215000       0.98596000
   153  H          0.78891800       0.90204000       0.44184000
   154  H          0.71108200       0.09796000       0.94184000
   155  H          0.28891800       0.59796000       0.55816000
   156  H          0.21108200       0.40204000       0.05816000
   157  H          0.71971300       0.98343000       0.23953000
   158  H          0.78028700       0.01657000       0.73953000
   159  H          0.21971300       0.51657000       0.76047000
   160  H          0.28028700       0.48343000       0.26047000
   161  H          0.78915700       0.02302400       0.32482500
   162  H          0.71084300       0.97697600       0.82482500
   163  H          0.28915700       0.47697600       0.67517500
   164  H          0.21084300       0.52302400       0.17517500
   165  H          0.28171200       0.03623000       0.26302000
   166  H          0.21828800       0.96377000       0.76302000
   167  H          0.78171200       0.46377000       0.73698000
   168  H          0.71828800       0.53623000       0.23698000
   169  H          0.59426500       0.15852100       0.29317000
   170  H          0.90573500       0.84147900       0.79317000
   171  H          0.09426500       0.34147900       0.70683000
   172  H          0.40573500       0.65852100       0.20683000
   173  H          0.59296600       0.22395000       0.25672000
   174  H          0.90703400       0.77605000       0.75672000
   175  H          0.09296600       0.27605000       0.74328000
   176  H          0.40703400       0.72395000       0.24328000
   177  H          0.76421800       0.16802400       0.23931400
   178  H          0.73578200       0.83197600       0.73931400
   179  H          0.26421800       0.33197600       0.76068600
   180  H          0.23578200       0.66802400       0.26068600
   181  H          0.38251100       0.96033000       0.15873000
   182  H          0.11748900       0.03967000       0.65873000
   183  H          0.88251100       0.53967000       0.84127000
   184  H          0.61748900       0.46033000       0.34127000
   185  H          0.88469100       0.09357000       0.05379000
   186  H          0.61530900       0.90643000       0.55379000
   187  H          0.38469100       0.40643000       0.94621000
   188  H          0.11530900       0.59357000       0.44621000
   189  H          0.06723000       0.11214000       0.10242300
   190  H          0.43277000       0.88786000       0.60242300
   191  H          0.56723000       0.38786000       0.89757700
   192  H          0.93277000       0.61214000       0.39757700
   193  H          0.81476700       0.09588000       0.12151900
   194  H          0.68523300       0.90412000       0.62151900
   195  H          0.31476700       0.40412000       0.87848100
   196  H          0.18523300       0.59588000       0.37848100
   197  H          0.12881200       0.92123000       0.26263000
   198  H          0.37118800       0.07877000       0.76263000
   199  H          0.62881200       0.57877000       0.73737000
   200  H          0.87118800       0.42123000       0.23737000
   201  H          0.08351300       0.81813000       0.21533000
   202  H          0.41648700       0.18187000       0.71533000
   203  H          0.58351300       0.68187000       0.78467000
   204  H          0.91648700       0.31813000       0.28467000
   205  H          0.93691300       0.87343000       0.18483000
   206  H          0.56308700       0.12657000       0.68483000
   207  H          0.43691300       0.62657000       0.81517000
   208  H          0.06308700       0.37343000       0.31517000
   209  H          0.86883000       0.85001300       0.05242500
   210  H          0.63117000       0.14998700       0.55242500
   211  H          0.36883000       0.64998700       0.94757500
   212  H          0.13117000       0.35001300       0.44757500
   213  H          0.76432500       0.80603000       0.10307000
   214  H          0.73567500       0.19397000       0.60307000
   215  H          0.26432500       0.69397000       0.89693000
   216  H          0.23567500       0.30603000       0.39693000
   217  H          0.82384800       0.77581900       0.04032200
   218  H          0.67615200       0.22418100       0.54032200
   219  H          0.32384800       0.72418100       0.95967800
   220  H          0.17615200       0.27581900       0.45967800
   221  S          0.18154000       0.03721000       0.41501000
   222  S          0.31846000       0.96279000       0.91501000
   223  S          0.68154000       0.46279000       0.58499000
   224  S          0.81846000       0.53721000       0.08499000
   225  O          0.09001000       0.01803000       0.35512000
   226  O          0.40999000       0.98197000       0.85512000
   227  O          0.59001000       0.48197000       0.64488000
   228  O          0.90999000       0.51803000       0.14488000
   229  C          0.94502000       0.06256000       0.45794000
   230  C          0.55498000       0.93744000       0.95794000
   231  C          0.44502000       0.43744000       0.54206000
   232  C          0.05498000       0.56256000       0.04206000
   233  C          0.30422100       0.11555000       0.40585000
   234  C          0.19577900       0.88445000       0.90585000
   235  C          0.80422100       0.38445000       0.59415000
   236  C          0.69577900       0.61555000       0.09415000
   237  H          0.85586800       0.09332600       0.43521300
   238  H          0.64413200       0.90667400       0.93521300
   239  H          0.35586800       0.40667400       0.56478700
   240  H          0.14413200       0.59332600       0.06478700
   241  H         -0.00188000       0.08283000       0.49411500
   242  H          0.50188000       0.91717000      -0.00588500
   243  H          0.49812000       0.41717000       0.50588500
   244  H          0.00188000       0.58283000       0.00588500
   245  H          0.85186500       0.02548000       0.46762600
   246  H          0.64813500       0.97452000       0.96762600
   247  H          0.35186500       0.47452000       0.53237400
   248  H          0.14813500       0.52548000       0.03237400
   249  H          0.44786700       0.11166000       0.38503100
   250  H          0.05213300       0.88834000       0.88503100
   251  H          0.94786700       0.38834000       0.61496900
   252  H          0.55213300       0.61166000       0.11496900
   253  H          0.33012000       0.13481700       0.44445000
   254  H          0.16988000       0.86518300       0.94445000
   255  H          0.83012000       0.36518300       0.55555000
   256  H          0.66988000       0.63481700       0.05555000
   257  H          0.20176300       0.14241200       0.38292900
   258  H          0.29823700       0.85758800       0.88292900
   259  H          0.70176300       0.35758800       0.61707100
   260  H          0.79823700       0.64241200       0.11707100
