data_ZEYNOI
_symmetry_space_group_name_H-M    'P1'
_symmetry_Int_Tables_number       1
loop_
_symmetry_equiv_pos_site_id
_symmetry_equiv_pos_as_xyz
1 x,y,z
_cell_length_a                   3.72686
_cell_length_b                   6.511411
_cell_length_c                   14.2102
_cell_angle_alpha                89.6962
_cell_angle_beta                 89.0982
_cell_angle_gamma                87.4942
loop_
_atom_site_label
_atom_site_type_symbol
_atom_site_fract_x
_atom_site_fract_y
_atom_site_fract_z
     1  O          0.39054000       0.73222000       0.89377100
     2  O          0.60946000       0.26778000       0.10622900
     3  N          0.11084000       0.04862000       0.90699100
     4  N          0.88916000       0.95138000       0.09300900
     5  N          0.39604000       0.94312000       0.76619110
     6  N          0.60396000       0.05688000       0.23380890
     7  N          0.82675000       0.36573000       0.91897130
     8  N          0.17325000       0.63427000       0.08102870
     9  C          0.12535000       0.27703000       0.77311140
    10  C          0.87465000       0.72297000       0.22688860
    11  C          0.31105000       0.12863000       0.72550140
    12  C          0.68895000       0.87137000       0.27449860
    13  C          0.30325000       0.90013000       0.85737130
    14  C          0.69675000       0.09987000       0.14262870
    15  C          0.01835000       0.23263000       0.86748130
    16  C         -0.01835000       0.76737000       0.13251870
    17  H          0.39750000       0.15130000       0.65791500
    18  H          0.60250000       0.84870000       0.34208500
    19  H          0.06860000       0.40730000       0.74311500
    20  H          0.93140000       0.59270000       0.25688500
    21  H          0.74940000       0.32930000       0.98071800
    22  H          0.25060000       0.67070000       0.01928200
    23  H          0.75640000       0.49040000       0.89221700
    24  H          0.24360000       0.50960000       0.10778300
    25  H          0.51960000       0.83840000       0.72881700
    26  H          0.48040000       0.16160000       0.27118300
    27  O          0.71454000       0.64772000       0.64883900
    28  O          0.28546000       0.35228000       0.35116100
    29  O          0.85744000       0.92608190       0.56970900
    30  O          0.14256000       0.07391810       0.43029100
    31  C          0.85185000       0.72973000       0.57918130
    32  C          0.14815000       0.27027000       0.42081870
    33  C          0.01335000       0.60063000       0.50113140
    34  C         -0.01335000       0.39937000       0.49886860
    35  H          0.12960000       0.67230000       0.45241600
    36  H          0.87040000       0.32770000       0.54758400
