data_ZEZFEP
_symmetry_space_group_name_H-M    'P1'
_symmetry_Int_Tables_number       1
loop_
_symmetry_equiv_pos_site_id
_symmetry_equiv_pos_as_xyz
1 x,y,z
_cell_length_a                   10.1843
_cell_length_b                   13.3304
_cell_length_c                   20.4296
_cell_angle_alpha                88.562
_cell_angle_beta                 78.052
_cell_angle_gamma                76.032
loop_
_atom_site_label
_atom_site_type_symbol
_atom_site_fract_x
_atom_site_fract_y
_atom_site_fract_z
     1  I          0.89885890       0.53636800       0.78034700
     2  I          0.10114110       0.46363200       0.21965300
     3  I          0.05320900       0.33544700       0.74559400
     4  I          0.94679100       0.66455300       0.25440600
     5  I          0.22193100       0.10667700       0.71627500
     6  I          0.77806900       0.89332300       0.28372500
     7  I          0.00480900       0.05585700       0.63919400
     8  I         -0.00480900       0.94414300       0.36080600
     9  I          0.81870100       0.01210700       0.56997500
    10  I          0.18129900       0.98789300       0.43002500
    11  I          0.42185100       0.02734900       0.56338600
    12  I          0.57814900       0.97265100       0.43661400
    13  I          0.64322900       0.65716300       0.97047400
    14  I          0.35677100       0.34283700       0.02952600
    15  I          0.46488200       0.55876400       0.89916400
    16  I          0.53511800       0.44123600       0.10083600
    17  I          0.29936100       0.47528300       0.83266500
    18  I          0.70063900       0.52471700       0.16733500
    19  I          0.65971200       0.79641400       0.84764400
    20  I          0.34028800       0.20358600       0.15235600
    21  I          0.68062870       0.91087200       0.73141500
    22  I          0.31937130       0.08912800       0.26858500
    23  P          0.96767000       0.24602000       0.98312000
    24  P          0.03233000       0.75398000       0.01688000
    25  C          0.90629000       0.21477000       0.06635000
    26  C          0.09371000       0.78523000       0.93365000
    27  C          0.80098800       0.16178000       0.08386000
    28  C          0.19901200       0.83822000       0.91614000
    29  C          0.76078800       0.13471000       0.14807000
    30  C          0.23921200       0.86529000       0.85193000
    31  C          0.82578700       0.15709000       0.19836000
    32  C          0.17421300       0.84291000       0.80164000
    33  C          0.92798600       0.21081000       0.18137000
    34  C          0.07201400       0.78919000       0.81863000
    35  C          0.96558800       0.24099000       0.11707000
    36  C          0.03441200       0.75901000       0.88293000
    37  C          0.87289000       0.20958000       0.92685000
    38  C          0.12711000       0.79042000       0.07315000
    39  C          0.92188900       0.11658000       0.89126000
    40  C          0.07811100       0.88342000       0.10874000
    41  C          0.84968800       0.08798000       0.84676000
    42  C          0.15031200       0.91202000       0.15324000
    43  C          0.72918800       0.15481000       0.83836000
    44  C          0.27081200       0.84519000       0.16164000
    45  C          0.67608800       0.24881000       0.87367000
    46  C          0.32391200       0.75119000       0.12633000
    47  C          0.74858900       0.27599000       0.91766000
    48  C          0.25141100       0.72401000       0.08234000
    49  C          0.14551100       0.17518000       0.95756000
    50  C          0.85448900       0.82482000       0.04244000
    51  C          0.20151100       0.09438000      -0.00634000
    52  C          0.79848900       0.90562000       0.00634000
    53  C          0.33801200       0.03939000       0.96997000
    54  C          0.66198800       0.96061000       0.03003000
    55  C          0.41541500       0.06731000       0.91237000
    56  C          0.58458500       0.93269000       0.08763000
    57  C          0.36051200       0.14731100       0.87646000
    58  C          0.63948800       0.85268900       0.12354000
    59  C          0.22261200       0.20281000       0.89906000
    60  C          0.77738800       0.79719000       0.10094000
    61  C          0.95618800       0.38268000       0.97936000
    62  C          0.04381200       0.61732000       0.02064000
    63  H          0.75140000       0.14210000       0.04570000
    64  H          0.24860000       0.85790000       0.95430000
    65  H          0.67800000       0.09550000       0.16060000
    66  H          0.32200000       0.90450000       0.83940000
    67  H          0.79680000       0.13280000       0.24900000
    68  H          0.20320000       0.86720000       0.75100000
    69  H          0.97870000       0.22920000       0.21930000
    70  H          0.02130000       0.77080000       0.78070000
    71  H          0.04240000       0.28570000       0.10550000
    72  H          0.95760000       0.71430000       0.89450000
    73  H          0.01760000       0.06510000       0.89800000
    74  H          0.98240000       0.93490000       0.10200000
    75  H          0.88770000       0.01480000       0.81940000
    76  H          0.11230000       0.98520000       0.18060000
    77  H          0.67360000       0.13390000       0.80320000
    78  H          0.32640000       0.86610000       0.19680000
    79  H          0.58010000       0.29950000       0.86660000
    80  H          0.41990000       0.70050000       0.13340000
    81  H          0.70940000       0.34870000       0.94520000
    82  H          0.29060000       0.65130000       0.05480000
    83  H          0.14120000       0.07320000       0.03940000
    84  H          0.85880000       0.92680000       0.96060000
    85  H          0.38310000       0.97420000      -0.00270000
    86  H          0.61690000       0.02580000       0.00270000
    87  H          0.52150000       0.02490000       0.89540000
    88  H          0.47850000       0.97510000       0.10460000
    89  H          0.42190000       0.16840000       0.83080000
    90  H          0.57810000       0.83160000       0.16920000
    91  H          0.17710000       0.26660000       0.87080000
    92  H          0.82290000       0.73340000       0.12920000
    93  H         -0.00630000       0.40230000       0.92840000
    94  H          0.00630000       0.59770000       0.07160000
    95  H          0.01820000       0.40310000       0.01140000
    96  H          0.98180000       0.59690000       0.98860000
    97  H          0.84970000       0.42440000      -0.00420000
    98  H          0.15030000       0.57560000       0.00420000
    99  P          0.46533000       0.40092000       0.36772000
   100  P          0.53467000       0.59908000       0.63228000
   101  C          0.32921200       0.38331000       0.43236000
   102  C          0.67078800       0.61669000       0.56764000
   103  C          0.25461300       0.46141000       0.47897000
   104  C          0.74538700       0.53859000       0.52103000
   105  C          0.15491500       0.44731200       0.53238000
   106  C          0.84508500       0.55268800       0.46762000
   107  C          0.12421600       0.34991300       0.53908000
   108  C          0.87578400       0.65008700       0.46092000
   109  C          0.19441700       0.27221200       0.49428000
   110  C          0.80558300       0.72778800       0.50572000
   111  C          0.29401500       0.28841000       0.44057000
   112  C          0.70598500       0.71159000       0.55943000
   113  C          0.44971200       0.53639000       0.35406000
   114  C          0.55028800       0.46361000       0.64594000
   115  C          0.54481300       0.58559000       0.36866000
   116  C          0.45518700       0.41441000       0.63134000
   117  C          0.53061500       0.68751000       0.35597000
   118  C          0.46938500       0.31249000       0.64403000
   119  C          0.42301700       0.74511000       0.32757000
   120  C          0.57698300       0.25489000       0.67243000
   121  C          0.33071600       0.69391100       0.31338000
   122  C          0.66928400       0.30608900       0.68662000
   123  C          0.34441300       0.59061000       0.32397000
   124  C          0.65558700       0.40939000       0.67603000
   125  C          0.62731400       0.34329000       0.39207000
   126  C          0.37268600       0.65671000       0.60793000
   127  C          0.62631500       0.30521000       0.45557000
   128  C          0.37368500       0.69479000       0.54443000
   129  C          0.75372200       0.26241200       0.47241000
   130  C          0.24627800       0.73758800       0.52759000
   131  C          0.87322100       0.25591300       0.42621100
   132  C          0.12677900       0.74408700       0.57378900
   133  C          0.87601700       0.29451300       0.36379000
   134  C          0.12398300       0.70548700       0.63621000
   135  C          0.74981700       0.33971100       0.34627000
   136  C          0.25018300       0.66028900       0.65373000
   137  C          0.46261300       0.33629000       0.29136000
   138  C          0.53738700       0.66371000       0.70864000
   139  H          0.27630000       0.53690000       0.47270000
   140  H          0.72370000       0.46310000       0.52730000
   141  H          0.10160000       0.50940000       0.56830000
   142  H          0.89840000       0.49060000       0.43170000
   143  H          0.04450000       0.33680000       0.57980000
   144  H          0.95550000       0.66320000       0.42020000
   145  H          0.17220000       0.19690000       0.50060000
   146  H          0.82780000       0.80310000       0.49940000
   147  H          0.34530000       0.22640000       0.40420000
   148  H          0.65470000       0.77360000       0.59580000
   149  H          0.62990000       0.54320000       0.38990000
   150  H          0.37010000       0.45680000       0.61010000
   151  H          0.60500000       0.72570000       0.36810000
   152  H          0.39500000       0.27430000       0.63190000
   153  H          0.41330000       0.82610000       0.31740000
   154  H          0.58670000       0.17390000       0.68260000
   155  H          0.24430000       0.73640000       0.29300000
   156  H          0.75570000       0.26360000       0.70700000
   157  H          0.27370000       0.55150000       0.30890000
   158  H          0.72630000       0.44850000       0.69110000
   159  H          0.53040000       0.30860000       0.49090000
   160  H          0.46960000       0.69140000       0.50910000
   161  H          0.75770000       0.23430000       0.52210000
   162  H          0.24230000       0.76570000       0.47790000
   163  H          0.97000000       0.21850000       0.43980000
   164  H          0.03000000       0.78150000       0.56020000
   165  H          0.97270000       0.29020000       0.32870000
   166  H          0.02730000       0.70980000       0.67130000
   167  H          0.74750000       0.37190000       0.29730000
   168  H          0.25250000       0.62810000       0.70270000
   169  H          0.36650000       0.36940000       0.27570000
   170  H          0.63350000       0.63060000       0.72430000
   171  H          0.47140000       0.25480000       0.30000000
   172  H          0.52860000       0.74520000       0.70000000
   173  H          0.54820000       0.34590000       0.25250000
   174  H          0.45180000       0.65410000       0.74750000
