data_ZICCIX
_symmetry_space_group_name_H-M    'P1'
_symmetry_Int_Tables_number       1
loop_
_symmetry_equiv_pos_site_id
_symmetry_equiv_pos_as_xyz
1 x,y,z
_cell_length_a                   7.2496
_cell_length_b                   28.992
_cell_length_c                   11.17512
_cell_angle_alpha                90.0
_cell_angle_beta                 97.842
_cell_angle_gamma                90.0
loop_
_atom_site_label
_atom_site_type_symbol
_atom_site_fract_x
_atom_site_fract_y
_atom_site_fract_z
     1  C          0.97706000       0.26742000       0.24305000
     2  C          0.52294000       0.76742000       0.75695000
     3  C          0.02294000       0.73258000       0.75695000
     4  C          0.47706000       0.23258000       0.24305000
     5  O          0.01525000       0.22791000       0.22643000
     6  O          0.48475000       0.72791000       0.77357000
     7  O         -0.01525000       0.77209000       0.77357000
     8  O          0.51525000       0.27209000       0.22643000
     9  O          0.95584000       0.28321000       0.35413000
    10  O          0.54416000       0.78321000       0.64587000
    11  O          0.04416000       0.71679000       0.64587000
    12  O          0.45584000       0.21679000       0.35413000
    13  C          0.90807000       0.33162000       0.34734000
    14  C          0.59193000       0.83162000       0.65266000
    15  C          0.09193000       0.66838000       0.65266000
    16  C          0.40807000       0.16838000       0.34734000
    17  C         -0.01675000       0.34811000       0.23453000
    18  C          0.51675000       0.84811000       0.76547000
    19  C          0.01675000       0.65189000       0.76547000
    20  C          0.48325000       0.15189000       0.23453000
    21  C          0.94455000       0.30651000       0.15313000
    22  C          0.55545000       0.80651000       0.84687000
    23  C          0.05545000       0.69349000       0.84687000
    24  C          0.44455000       0.19349000       0.15313000
    25  C          0.05245000       0.30731000       0.04774000
    26  C          0.44755000       0.80731000       0.95226000
    27  C          0.94755000       0.69269000       0.95226000
    28  C          0.55245000       0.19269000       0.04774000
    29  C          0.04065000       0.35502000      -0.00474000
    30  C          0.45935000       0.85502000       0.00474000
    31  C          0.95935000       0.64498000       0.00474000
    32  C          0.54065000       0.14498000      -0.00474000
    33  C         -0.01984000       0.39162000       0.04724000
    34  C          0.51984000       0.89162000       0.95276000
    35  C          0.01984000       0.60838000       0.95276000
    36  C          0.48016000       0.10838000       0.04724000
    37  C          0.91905000       0.39301000       0.17053000
    38  C          0.58095000       0.89301000       0.82947000
    39  C          0.08095000       0.60699000       0.82947000
    40  C          0.41905000       0.10699000       0.17053000
    41  C         -0.01404000       0.27112000       0.95246000
    42  C          0.51404000       0.77112000       0.04754000
    43  C          0.01404000       0.72888000       0.04754000
    44  C          0.48596000       0.22888000       0.95246000
    45  C          0.71366000       0.40391000       0.16763000
    46  C          0.78634000       0.90391000       0.83237000
    47  C          0.28634000       0.59609000       0.83237000
    48  C          0.21366000       0.09609000       0.16763000
    49  C          0.64057000       0.44222000       0.08274000
    50  C          0.85943000       0.94222000       0.91726000
    51  C          0.35943000       0.55778000       0.91726000
    52  C          0.14057000       0.05778000       0.08274000
    53  O          0.69444000       0.41821000       0.29172000
    54  O          0.80556000       0.91821000       0.70828000
    55  O          0.30556000       0.58179000       0.70828000
    56  O          0.19444000       0.08179000       0.29172000
    57  C          0.53006000       0.41341000       0.32944000
    58  C          0.96994000       0.91341000       0.67056000
    59  C          0.46994000       0.58659000       0.67056000
    60  C          0.03006000       0.08659000       0.32944000
    61  O          0.39384000       0.39881000       0.26903000
    62  O          0.10616000       0.89881000       0.73097000
    63  O          0.60616000       0.60119000       0.73097000
    64  O          0.89384000       0.10119000       0.26903000
    65  C          0.53095000       0.42941000       0.45614000
    66  C          0.96905000       0.92941000       0.54386000
    67  C          0.46905000       0.57059000       0.54386000
    68  C          0.03095000       0.07059000       0.45614000
    69  C          0.37335000       0.42051000       0.51214000
    70  C          0.12665000       0.92051000       0.48786000
    71  C          0.62665000       0.57949000       0.48786000
    72  C          0.87335000       0.07949000       0.51214000
    73  C          0.37155000       0.43461000       0.62884000
    74  C          0.12845000       0.93461000       0.37116000
    75  C          0.62845000       0.56539000       0.37116000
    76  C          0.87155000       0.06539000       0.62884000
    77  C          0.51836000       0.45751000       0.69434000
    78  C         -0.01836000       0.95751000       0.30566000
    79  C          0.48164000       0.54249000       0.30566000
    80  C          0.01836000       0.04249000       0.69434000
    81  C          0.66905000       0.46631000       0.63644000
    82  C          0.83095000       0.96631000       0.36356000
    83  C          0.33095000       0.53369000       0.36356000
    84  C          0.16905000       0.03369000       0.63644000
    85  C          0.67995000       0.45311000       0.51944000
    86  C          0.82005000       0.95311000       0.48056000
    87  C          0.32005000       0.54689000       0.48056000
    88  C          0.17995000       0.04689000       0.51944000
    89  N          0.20606000       0.42441000       0.68785000
    90  N          0.29394000       0.92441000       0.31215000
    91  N          0.79394000       0.57559000       0.31215000
    92  N          0.70606000       0.07559000       0.68785000
    93  O          0.07175000       0.40661000       0.62663000
    94  O          0.42825000       0.90661000       0.37337000
    95  O          0.92825000       0.59339000       0.37337000
    96  O          0.57175000       0.09339000       0.62663000
    97  O          0.21195000       0.43481000       0.79434000
    98  O          0.28805000       0.93481000       0.20566000
    99  O          0.78805000       0.56519000       0.20566000
   100  O          0.71195000       0.06519000       0.79434000
   101  N          0.82605000       0.49211000       0.70264000
   102  N          0.67395000       0.99211000       0.29736000
   103  N          0.17395000       0.50789000       0.29736000
   104  N          0.32605000       0.00789000       0.70264000
   105  O          0.83084000       0.49661000       0.81193000
   106  O          0.66916000      -0.00339000       0.18807000
   107  O          0.16916000       0.50339000       0.18807000
   108  O          0.33084000       0.00339000       0.81193000
   109  O          0.94334000       0.50761000       0.64513000
   110  O          0.55666000       0.00761000       0.35487000
   111  O          0.05666000       0.49239000       0.35487000
   112  O          0.44334000       0.99239000       0.64513000
   113  H          0.96420000       0.34800000       0.41770000
   114  H          0.53580000       0.84800000       0.58230000
   115  H          0.03580000       0.65200000       0.58230000
   116  H          0.46420000       0.15200000       0.41770000
   117  H          0.77540000       0.33580000       0.33810000
   118  H          0.72460000       0.83580000       0.66190000
   119  H          0.22460000       0.66420000       0.66190000
   120  H          0.27540000       0.16420000       0.33810000
   121  H          0.11600000       0.34970000       0.25500000
   122  H          0.38400000       0.84970000       0.74500000
   123  H          0.88400000       0.65030000       0.74500000
   124  H          0.61600000       0.15030000       0.25500000
   125  H          0.81470000       0.30710000       0.12130000
   126  H          0.68530000       0.80710000       0.87870000
   127  H          0.18530000       0.69290000       0.87870000
   128  H          0.31470000       0.19290000       0.12130000
   129  H          0.18020000       0.30090000       0.07810000
   130  H          0.31980000       0.80090000       0.92190000
   131  H          0.81980000       0.69910000       0.92190000
   132  H          0.68020000       0.19910000       0.07810000
   133  H          0.07770000       0.35860000       0.91660000
   134  H          0.42230000       0.85860000       0.08340000
   135  H          0.92230000       0.64140000       0.08340000
   136  H          0.57770000       0.14140000       0.91660000
   137  H          0.97530000       0.42000000       0.00250000
   138  H          0.52470000       0.92000000      -0.00250000
   139  H          0.02470000       0.58000000      -0.00250000
   140  H          0.47530000       0.08000000       0.00250000
   141  H         -0.01500000       0.41770000       0.21470000
   142  H          0.51500000       0.91770000       0.78530000
   143  H          0.01500000       0.58230000       0.78530000
   144  H          0.48500000       0.08230000       0.21470000
   145  H         -0.00450000       0.24100000      -0.01170000
   146  H          0.50450000       0.74100000       0.01170000
   147  H          0.00450000       0.75900000       0.01170000
   148  H          0.49550000       0.25900000      -0.01170000
   149  H          0.85820000       0.27740000       0.92150000
   150  H          0.64180000       0.77740000       0.07850000
   151  H          0.14180000       0.72260000       0.07850000
   152  H          0.35820000       0.22260000       0.92150000
   153  H          0.06010000       0.27240000       0.88770000
   154  H          0.43990000       0.77240000       0.11230000
   155  H          0.93990000       0.72760000       0.11230000
   156  H          0.56010000       0.22760000       0.88770000
   157  H          0.64250000       0.37630000       0.14760000
   158  H          0.85750000       0.87630000       0.85240000
   159  H          0.35750000       0.62370000       0.85240000
   160  H          0.14250000       0.12370000       0.14760000
   161  H          0.50930000       0.44600000       0.08440000
   162  H         -0.00930000       0.94600000       0.91560000
   163  H          0.49070000       0.55400000       0.91560000
   164  H          0.00930000       0.05400000       0.08440000
   165  H          0.70440000       0.47010000       0.10910000
   166  H          0.79560000       0.97010000       0.89090000
   167  H          0.29560000       0.52990000       0.89090000
   168  H          0.20440000       0.02990000       0.10910000
   169  H          0.66220000       0.43520000       0.00180000
   170  H          0.83780000       0.93520000      -0.00180000
   171  H          0.33780000       0.56480000      -0.00180000
   172  H          0.16220000       0.06480000       0.00180000
   173  H          0.26790000       0.40510000       0.46840000
   174  H          0.23210000       0.90510000       0.53160000
   175  H          0.73210000       0.59490000       0.53160000
   176  H          0.76790000       0.09490000       0.46840000
   177  H          0.51530000       0.46710000       0.77630000
   178  H         -0.01530000       0.96710000       0.22370000
   179  H          0.48470000       0.53290000       0.22370000
   180  H          0.01530000       0.03290000       0.77630000
   181  H          0.78880000       0.46000000       0.48250000
   182  H          0.71120000       0.96000000       0.51750000
   183  H          0.21120000       0.54000000       0.51750000
   184  H          0.28880000       0.04000000       0.48250000
   185  C          0.32878000       0.67132000       0.35468000
   186  C          0.17122000       0.17132000       0.64532000
   187  C          0.67122000       0.32868000       0.64532000
   188  C          0.82878000       0.82868000       0.35468000
   189  C          0.38421200       0.65922000       0.24667000
   190  C          0.11578800       0.15922000       0.75333000
   191  C          0.61578800       0.34078000       0.75333000
   192  C          0.88421200       0.84078000       0.24667000
   193  C          0.56091500       0.66962000       0.22636000
   194  C          0.93908500       0.16962000       0.77364000
   195  C          0.43908500       0.33038000       0.77364000
   196  C          0.06091500       0.83038000       0.22636000
   197  C          0.67709000       0.69122000       0.31339000
   198  C          0.82291000       0.19122000       0.68661000
   199  C          0.32291000       0.30878000       0.68661000
   200  C          0.17709000       0.80878000       0.31339000
   201  C          0.61981000       0.70272000       0.41906000
   202  C          0.88019000       0.20272000       0.58094000
   203  C          0.38019000       0.29728000       0.58094000
   204  C          0.11981000       0.79728000       0.41906000
   205  C          0.44781100       0.69322000       0.43895000
   206  C          0.05218900       0.19322000       0.56105000
   207  C          0.55218900       0.30678000       0.56105000
   208  C          0.94781100       0.80678000       0.43895000
   209  H          0.20410000       0.66420000       0.36880000
   210  H          0.29590000       0.16420000       0.63120000
   211  H          0.79590000       0.33580000       0.63120000
   212  H          0.70410000       0.83580000       0.36880000
   213  H          0.29960000       0.64390000       0.18570000
   214  H          0.20040000       0.14390000       0.81430000
   215  H          0.70040000       0.35610000       0.81430000
   216  H          0.79960000       0.85610000       0.18570000
   217  H          0.60040000       0.66080000       0.15090000
   218  H          0.89960000       0.16080000       0.84910000
   219  H          0.39960000       0.33920000       0.84910000
   220  H          0.10040000       0.83920000       0.15090000
   221  H          0.79930000       0.69870000       0.29550000
   222  H          0.70070000       0.19870000       0.70450000
   223  H          0.20070000       0.30130000       0.70450000
   224  H          0.29930000       0.80130000       0.29550000
   225  H          0.70750000       0.71750000       0.47890000
   226  H          0.79250000       0.21750000       0.52110000
   227  H          0.29250000       0.28250000       0.52110000
   228  H          0.20750000       0.78250000       0.47890000
   229  H          0.40830000       0.70150000       0.51460000
   230  H          0.09170000       0.20150000       0.48540000
   231  H          0.59170000       0.29850000       0.48540000
   232  H          0.90830000       0.79850000       0.51460000
