data_ZIDLUV
_symmetry_space_group_name_H-M    'P1'
_symmetry_Int_Tables_number       1
loop_
_symmetry_equiv_pos_site_id
_symmetry_equiv_pos_as_xyz
1 x,y,z
_cell_length_a                   7.02343
_cell_length_b                   11.51617
_cell_length_c                   16.695213
_cell_angle_alpha                84.6703
_cell_angle_beta                 85.1694
_cell_angle_gamma                81.5714
loop_
_atom_site_label
_atom_site_type_symbol
_atom_site_fract_x
_atom_site_fract_y
_atom_site_fract_z
     1  I          0.75868800       0.73042500       0.61058400
     2  I          0.24131200       0.26957500       0.38941600
     3  S          0.23273000       0.69815190       0.40170140
     4  S          0.76727000       0.30184810       0.59829860
     5  O          0.38991000       0.66015000       0.33924000
     6  O          0.61009000       0.33985000       0.66076000
     7  C          0.02791300       0.63539000       0.38046000
     8  C          0.97208700       0.36461000       0.61954000
     9  H          0.97800000       0.67370000       0.33150000
    10  H          0.02200000       0.32630000       0.66850000
    11  H          0.93050000       0.64550000       0.42410000
    12  H          0.06950000       0.35450000       0.57590000
    13  H          0.06470000       0.55280000       0.37430000
    14  H          0.93530000       0.44720000       0.62570000
    15  C          0.28351400       0.61061000       0.49066000
    16  C          0.71648600       0.38939000       0.50934000
    17  H          0.39470000       0.63260000       0.51190000
    18  H          0.60530000       0.36740000       0.48810000
    19  H          0.30880000       0.52930000       0.47940000
    20  H          0.69120000       0.47070000       0.52060000
    21  H          0.17490000       0.62190000       0.52940000
    22  H          0.82510000       0.37810000       0.47060000
    23  S          0.78394000       0.96442000       0.35120170
    24  S          0.21606000       0.03558000       0.64879830
    25  O          0.72461000       0.02955000       0.27384000
    26  O          0.27539000       0.97045000       0.72616000
    27  C          0.79581600       0.07111000       0.41927000
    28  C          0.20418400       0.92889000       0.58073000
    29  H          0.90560000       0.11090000       0.40340000
    30  H          0.09440000       0.88910000       0.59660000
    31  H          0.80800000       0.03320000       0.47260000
    32  H          0.19200000       0.96680000       0.52740000
    33  H          0.68030000       0.12710000       0.41860000
    34  H          0.31970000       0.87290000       0.58140000
    35  C          0.57441700       0.91301000       0.39856000
    36  C          0.42558300       0.08699000       0.60144000
    37  H          0.54170000       0.85160000       0.36930000
    38  H          0.45830000       0.14840000       0.63070000
    39  H          0.46970000       0.97680000       0.39900000
    40  H          0.53030000       0.02320000       0.60100000
    41  H          0.59780000       0.88280000       0.45280000
    42  H          0.40220000       0.11720000       0.54720000
    43  S          0.28475000      -0.00037000       0.13922000
    44  S          0.71525000       0.00037000       0.86078000
    45  O          0.18020000       0.95929000       0.08276000
    46  O          0.81980000       0.04071000       0.91724000
    47  C          0.25801900       0.90651000       0.22738000
    48  C          0.74198100       0.09349000       0.77262000
    49  H          0.32110000       0.82860000       0.21820000
    50  H          0.67890000       0.17140000       0.78180000
    51  H          0.12330000       0.90420000       0.24160000
    52  H          0.87670000       0.09580000       0.75840000
    53  H          0.31500000       0.93580000       0.27030000
    54  H          0.68500000       0.06420000       0.72970000
    55  C          0.16281800       0.12628000       0.17647000
    56  C          0.83718200       0.87372000       0.82353000
    57  H          0.16260000       0.19000000       0.13510000
    58  H          0.83740000       0.81000000       0.86490000
    59  H          0.22550000       0.14450000       0.22170000
    60  H          0.77450000       0.85550000       0.77830000
    61  H          0.03230000       0.11480000       0.19330000
    62  H          0.96770000       0.88520000       0.80670000
    63  N          0.69798000       0.27595000       0.11123000
    64  N          0.30202000       0.72405000       0.88877000
    65  N          0.69658000       0.39175000       0.20783000
    66  N          0.30342000       0.60825000       0.79217000
    67  C          0.68391000       0.28246000       0.18875000
    68  C          0.31609000       0.71754000       0.81125000
    69  H          0.66730000       0.21930000       0.22640000
    70  H          0.33270000       0.78070000       0.77360000
    71  C          0.72058000       0.46036000       0.13484000
    72  C          0.27942000       0.53964000       0.86516000
    73  C          0.72168000       0.38685000       0.07464000
    74  C          0.27832000       0.61315000       0.92536000
    75  C          0.74068000       0.58206000       0.12084000
    76  C          0.25932000       0.41794000       0.87916000
    77  C          0.74258000       0.42716000       0.99116000
    78  C          0.25742000       0.57284000       0.00884000
    79  C          0.76668000       0.62416000       0.03864000
    80  C          0.23332000       0.37584000       0.96136000
    81  C          0.76488000       0.54765000       0.97286000
    82  C          0.23512000       0.45235000       0.02714000
    83  N          0.78367000       0.59645000       0.89726000
    84  N          0.21633000       0.40355000       0.10274000
    85  C          0.77629000       0.53037000       0.83735000
    86  C          0.22371000       0.46963000       0.16265000
    87  H          0.78620000       0.56510000       0.78490000
    88  H          0.21380000       0.43490000       0.21510000
    89  C          0.75421000       0.41136000       0.84816000
    90  C          0.24579000       0.58864000       0.15184000
    91  H          0.75130000       0.36810000       0.80400000
    92  H          0.24870000       0.63190000       0.19600000
    93  C          0.73729000       0.35956000       0.92506000
    94  C          0.26271000       0.64044000       0.07494000
    95  H          0.72220000       0.28040000       0.93390000
    96  H          0.27780000       0.71960000       0.06610000
    97  N          0.79098000       0.73785000       0.01584000
    98  N          0.20902000       0.26215000       0.98416000
    99  C          0.69451300       0.16636000       0.07415000
   100  C          0.30548700       0.83364000       0.92585000
   101  H          0.68010000       0.10390000       0.11550000
   102  H          0.31990000       0.89610000       0.88450000
   103  H          0.81310000       0.14730000       0.04200000
   104  H          0.18690000       0.85270000       0.95800000
   105  H          0.58820000       0.17560000       0.04040000
   106  H          0.41180000       0.82440000       0.95960000
   107  C          0.69071200       0.42357000       0.29085000
   108  C          0.30928800       0.57643000       0.70915000
   109  H          0.66970000       0.35640000       0.32740000
   110  H          0.33030000       0.64360000       0.67260000
   111  H          0.58750000       0.48650000       0.29950000
   112  H          0.41250000       0.51350000       0.70050000
   113  H          0.81100000       0.44840000       0.30000000
   114  H          0.18900000       0.55160000       0.70000000
   115  C          0.75831100       0.77717000       0.15465000
   116  C          0.24168900       0.22283000       0.84535000
   117  H          0.75410000       0.83200000       0.19240000
   118  H          0.24590000       0.16800000       0.80760000
   119  C          0.78951100       0.80936000       0.07335000
   120  C          0.21048900       0.19064000       0.92665000
   121  H          0.81100000       0.88630000       0.05810000
   122  H          0.18900000       0.11370000       0.94190000
   123  C          0.73351000       0.66286000       0.17865000
   124  C          0.26649000       0.33714000       0.82135000
   125  H          0.71200000       0.63940000       0.23300000
   126  H          0.28800000       0.36060000       0.76700000
