data_ZIGFON
_symmetry_space_group_name_H-M    'P1'
_symmetry_Int_Tables_number       1
loop_
_symmetry_equiv_pos_site_id
_symmetry_equiv_pos_as_xyz
1 x,y,z
_cell_length_a                   24.6754
_cell_length_b                   10.330316
_cell_length_c                   9.701815
_cell_angle_alpha                90.0
_cell_angle_beta                 96.5103
_cell_angle_gamma                90.0
loop_
_atom_site_label
_atom_site_type_symbol
_atom_site_fract_x
_atom_site_fract_y
_atom_site_fract_z
     1  Cl         0.03007200       0.67693700       0.54735400
     2  Cl         0.96992800       0.17693700       0.95264600
     3  Cl         0.96992800       0.32306300       0.45264600
     4  Cl         0.03007200       0.82306300       0.04735400
     5  O          0.10321500       0.28729100       0.71412100
     6  O          0.89678500       0.78729100       0.78587900
     7  O          0.89678500       0.71270900       0.28587900
     8  O          0.10321500       0.21270900       0.21412100
     9  O          0.23709400       0.96339900       0.31974100
    10  O          0.76290600       0.46339900       0.18025900
    11  O          0.76290600       0.03660100       0.68025900
    12  O          0.23709400       0.53660100       0.81974100
    13  O          0.34089400       0.91332110       0.27499110
    14  O          0.65910600       0.41332110       0.22500890
    15  O          0.65910600       0.08667890       0.72500890
    16  O          0.34089400       0.58667890       0.77499110
    17  H          0.37370000       0.89330000       0.27160000
    18  H          0.62630000       0.39330000       0.22840000
    19  H          0.62630000       0.10670000       0.72840000
    20  H          0.37370000       0.60670000       0.77160000
    21  O          0.37301400      -0.00959890       0.48452110
    22  O          0.62698600       0.49040110       0.01547890
    23  O          0.62698600       0.00959890       0.51547890
    24  O          0.37301400       0.50959890       0.98452110
    25  N          0.12332500       0.28892110       0.49322120
    26  N          0.87667500       0.78892110       0.00677880
    27  N          0.87667500       0.71107890       0.50677880
    28  N          0.12332500       0.21107890      -0.00677880
    29  H          0.12370000       0.24470000       0.41580000
    30  H          0.87630000       0.74470000       0.08420000
    31  H          0.87630000       0.75530000       0.58420000
    32  H          0.12370000       0.25530000       0.91580000
    33  C          0.05126600       0.83833870       0.56045140
    34  C          0.94873400       0.33833870       0.93954860
    35  C          0.94873400       0.16166130       0.43954860
    36  C          0.05126600       0.66166130       0.06045140
    37  C          0.03230600       0.91745860       0.66019140
    38  C          0.96769400       0.41745860       0.83980860
    39  C          0.96769400       0.08254140       0.33980860
    40  C          0.03230600       0.58254140       0.16019140
    41  H          0.00760000       0.88500000       0.72020000
    42  H          0.99240000       0.38500000       0.77980000
    43  H          0.99240000       0.11500000       0.27980000
    44  H          0.00760000       0.61500000       0.22020000
    45  C          0.05011600       0.04483140       0.67049140
    46  C          0.94988400       0.54483140       0.82950860
    47  C          0.94988400       0.95516860       0.32950860
    48  C          0.05011600       0.45516860       0.17049140
    49  H          0.03770000       0.09970000       0.73890000
    50  H          0.96230000       0.59970000       0.76110000
    51  H          0.96230000       0.90030000       0.26110000
    52  H          0.03770000       0.40030000       0.23890000
    53  C          0.08604500       0.09362130       0.58166130
    54  C          0.91395500       0.59362130       0.91833870
    55  C          0.91395500       0.90637870       0.41833870
    56  C          0.08604500       0.40637870       0.08166130
    57  C          0.10399600       0.01179140       0.48124140
    58  C          0.89600400       0.51179140       0.01875860
    59  C          0.89600400      -0.01179140       0.51875860
    60  C          0.10399600       0.48820860       0.98124140
    61  H          0.12810000       0.04410000       0.41980000
    62  H          0.87190000       0.54410000       0.08020000
    63  H          0.87190000       0.95590000       0.58020000
    64  H          0.12810000       0.45590000       0.91980000
    65  C          0.08684600       0.88371860       0.47064140
    66  C          0.91315400       0.38371860       0.02935860
    67  C          0.91315400       0.11628140       0.52935860
    68  C          0.08684600       0.61628140       0.97064140
    69  H          0.09930000       0.82810000       0.40290000
    70  H          0.90070000       0.32810000       0.09710000
    71  H          0.90070000       0.17190000       0.59710000
    72  H          0.09930000       0.67190000       0.90290000
    73  C          0.10467600       0.23151140       0.60160140
    74  C          0.89532400       0.73151140       0.89839860
    75  C          0.89532400       0.76848860       0.39839860
    76  C          0.10467600       0.26848860       0.10160140
    77  C          0.14318600       0.42218130       0.49771150
    78  C          0.85681400       0.92218130       0.00228850
    79  C          0.85681400       0.57781870       0.50228850
    80  C          0.14318600       0.07781870      -0.00228850
    81  H          0.15200000       0.44960000       0.59540000
    82  H          0.84800000       0.94960000       0.90460000
    83  H          0.84800000       0.55040000       0.40460000
    84  H          0.15200000       0.05040000       0.09540000
    85  H          0.11430000       0.48020000       0.45350000
    86  H          0.88570000       0.98020000       0.04650000
    87  H          0.88570000       0.51980000       0.54650000
    88  H          0.11430000       0.01980000       0.95350000
    89  C          0.19402600       0.43331140       0.42206150
    90  C          0.80597400       0.93331140       0.07793850
    91  C          0.80597400       0.56668860       0.57793850
    92  C          0.19402600       0.06668860       0.92206150
    93  H          0.22500000       0.39010000       0.47760000
    94  H          0.77500000       0.89010000       0.02240000
    95  H          0.77500000       0.60990000       0.52240000
    96  H          0.22500000       0.10990000       0.97760000
    97  H          0.18750000       0.38830000       0.33160000
    98  H          0.81250000       0.88830000       0.16840000
    99  H          0.81250000       0.61170000       0.66840000
   100  H          0.18750000       0.11170000       0.83160000
   101  C          0.20871600       0.57276130       0.39812140
   102  C          0.79128400       0.07276130       0.10187860
   103  C          0.79128400       0.42723870       0.60187860
   104  C          0.20871600       0.92723870       0.89812140
   105  C          0.24879600       0.63801140       0.48316140
   106  C          0.75120400       0.13801140       0.01683860
   107  C          0.75120400       0.36198860       0.51683860
   108  C          0.24879600       0.86198860       0.98316140
   109  H          0.26880000       0.59310000       0.55780000
   110  H          0.73120000       0.09310000       0.94220000
   111  H          0.73120000       0.40690000       0.44220000
   112  H          0.26880000       0.90690000       0.05780000
   113  C          0.26035600       0.76830140       0.46137140
   114  C          0.73964400       0.26830140       0.03862860
   115  C          0.73964400       0.23169860       0.53862860
   116  C          0.26035600       0.73169860       0.96137140
   117  H          0.28820000       0.81110000       0.51990000
   118  H          0.71180000       0.31110000       0.98010000
   119  H          0.71180000       0.18890000       0.48010000
   120  H          0.28820000       0.68890000       0.01990000
   121  C          0.23077500       0.83479130       0.35359140
   122  C          0.76922500       0.33479130       0.14640860
   123  C          0.76922500       0.16520870       0.64640860
   124  C          0.23077500       0.66520870       0.85359140
   125  C          0.19032500       0.77082140       0.26717140
   126  C          0.80967500       0.27082140       0.23282860
   127  C          0.80967500       0.22917860       0.73282860
   128  C          0.19032500       0.72917860       0.76717140
   129  H          0.17010000       0.81600000       0.19310000
   130  H          0.82990000       0.31600000       0.30690000
   131  H          0.82990000       0.18400000       0.80690000
   132  H          0.17010000       0.68400000       0.69310000
   133  C          0.17970600       0.64151140       0.28949140
   134  C          0.82029400       0.14151140       0.21050860
   135  C          0.82029400       0.35848860       0.71050860
   136  C          0.17970600       0.85848860       0.78949140
   137  H          0.15220000       0.59860000       0.22990000
   138  H          0.84780000       0.09860000       0.27010000
   139  H          0.84780000       0.40140000       0.77010000
   140  H          0.15220000       0.90140000       0.72990000
   141  C          0.27993600       0.04017140       0.39197150
   142  C          0.72006400       0.54017140       0.10802850
   143  C          0.72006400       0.95982860       0.60802850
   144  C          0.27993600       0.45982860       0.89197150
   145  C          0.33630600       0.97505140       0.38932150
   146  C          0.66369400       0.47505140       0.11067850
   147  C          0.66369400       0.02494860       0.61067850
   148  C          0.33630600       0.52494860       0.88932150
   149  C          0.28033700       0.16137140       0.30115170
   150  C          0.71966300       0.66137140       0.19884830
   151  C          0.71966300       0.83862860       0.69884830
   152  C          0.28033700       0.33862860       0.80115170
   153  H          0.28850000       0.13680000       0.20810000
   154  H          0.71150000       0.63680000       0.29190000
   155  H          0.71150000       0.86320000       0.79190000
   156  H          0.28850000       0.36320000       0.70810000
   157  H          0.30830000       0.22160000       0.34260000
   158  H          0.69170000       0.72160000       0.15740000
   159  H          0.69170000       0.77840000       0.65740000
   160  H          0.30830000       0.27840000       0.84260000
   161  H          0.24450000       0.20330000       0.29460000
   162  H          0.75550000       0.70330000       0.20540000
   163  H          0.75550000       0.79670000       0.70540000
   164  H          0.24450000       0.29670000       0.79460000
   165  C          0.26705600       0.07535150       0.53692160
   166  C          0.73294400       0.57535150       0.96307840
   167  C          0.73294400       0.92464850       0.46307840
   168  C          0.26705600       0.42464850       0.03692160
   169  H          0.23200000       0.12100000       0.53070000
   170  H          0.76800000       0.62100000       0.96930000
   171  H          0.76800000       0.87900000       0.46930000
   172  H          0.23200000       0.37900000       0.03070000
   173  H          0.29590000       0.13150000       0.58160000
   174  H          0.70410000       0.63150000       0.91840000
   175  H          0.70410000       0.86850000       0.41840000
   176  H          0.29590000       0.36850000       0.08160000
   177  H          0.26490000      -0.00370000       0.59180000
   178  H          0.73510000       0.49630000       0.90820000
   179  H          0.73510000       0.00370000       0.40820000
   180  H          0.26490000       0.50370000       0.09180000
   181  N          0.43775500       0.86447120       0.22948130
   182  N          0.56224500       0.36447120       0.27051870
   183  N          0.56224500       0.13552880       0.77051870
   184  N          0.43775500       0.63552880       0.72948130
   185  N          0.58938600       0.89966140       0.08159160
   186  N          0.41061400       0.39966140       0.41840840
   187  N          0.41061400       0.10033860       0.91840840
   188  N          0.58938600       0.60033860       0.58159160
   189  C          0.47710600       0.94154150       0.29252160
   190  C          0.52289400       0.44154150       0.20747840
   191  C          0.52289400       0.05845850       0.70747840
   192  C          0.47710600       0.55845850       0.79252160
   193  H          0.46910000      -0.01020000       0.37110000
   194  H          0.53090000       0.48980000       0.12890000
   195  H          0.53090000       0.01020000       0.62890000
   196  H          0.46910000       0.51020000       0.87110000
   197  C          0.52792600       0.95442150       0.25017170
   198  C          0.47207400       0.45442150       0.24982830
   199  C          0.47207400       0.04557850       0.74982830
   200  C          0.52792600       0.54557850       0.75017170
   201  H          0.55430000       0.00890000       0.29980000
   202  H          0.44570000       0.50890000       0.20020000
   203  H          0.44570000      -0.00890000       0.70020000
   204  H          0.55430000       0.49110000       0.79980000
   205  C          0.54077600       0.88572150       0.13170160
   206  C          0.45922400       0.38572150       0.36829840
   207  C          0.45922400       0.11427850       0.86829840
   208  C          0.54077600       0.61427850       0.63170160
   209  C          0.49959600       0.80213150       0.06836160
   210  C          0.50040400       0.30213150       0.43163840
   211  C          0.50040400       0.19786850       0.93163840
   212  C          0.49959600       0.69786850       0.56836160
   213  H          0.50630000       0.75060000      -0.00900000
   214  H          0.49370000       0.25060000       0.50900000
   215  H          0.49370000       0.24940000       0.00900000
   216  H          0.50630000       0.74940000       0.49100000
   217  C          0.44997600       0.79596150       0.11924160
   218  C          0.55002400       0.29596150       0.38075840
   219  C          0.55002400       0.20403850       0.88075840
   220  C          0.44997600       0.70403850       0.61924160
   221  H          0.42280000       0.74040000       0.07420000
   222  H          0.57720000       0.24040000       0.42580000
   223  H          0.57720000       0.25960000       0.92580000
   224  H          0.42280000       0.75960000       0.57420000
   225  C          0.62917700      -0.00626810       0.14342000
   226  C          0.37082300       0.49373190       0.35658000
   227  C          0.37082300       0.00626810       0.85658000
   228  C          0.62917700       0.50626810       0.64342000
   229  H          0.66290000       0.98630000       0.09940000
   230  H          0.33710000       0.48630000       0.40060000
   231  H          0.33710000       0.01370000       0.90060000
   232  H          0.66290000       0.51370000       0.59940000
   233  H          0.63700000       0.97670000       0.24300000
   234  H          0.36300000       0.47670000       0.25700000
   235  H          0.36300000       0.02330000       0.75700000
   236  H          0.63700000       0.52330000       0.74300000
   237  H          0.61430000       0.08130000       0.12910000
   238  H          0.38570000       0.58130000       0.37090000
   239  H          0.38570000       0.91870000       0.87090000
   240  H          0.61430000       0.41870000       0.62910000
   241  C          0.59950700       0.83357190       0.95395810
   242  C          0.40049300       0.33357190       0.54604190
   243  C          0.40049300       0.16642810       0.04604190
   244  C          0.59950700       0.66642810       0.45395810
   245  H          0.56980000       0.85250000       0.88100000
   246  H          0.43020000       0.35250000       0.61900000
   247  H          0.43020000       0.14750000       0.11900000
   248  H          0.56980000       0.64750000       0.38100000
   249  H          0.60140000       0.74000000       0.97040000
   250  H          0.39860000       0.24000000       0.52960000
   251  H          0.39860000       0.26000000       0.02960000
   252  H          0.60140000       0.76000000       0.47040000
   253  H          0.63410000       0.86380000       0.92490000
   254  H          0.36590000       0.36380000       0.57510000
   255  H          0.36590000       0.13620000       0.07510000
   256  H          0.63410000       0.63620000       0.42490000
