data_ZIHQEQ
_symmetry_space_group_name_H-M    'P1'
_symmetry_Int_Tables_number       1
loop_
_symmetry_equiv_pos_site_id
_symmetry_equiv_pos_as_xyz
1 x,y,z
_cell_length_a                   4.98603
_cell_length_b                   10.850016
_cell_length_c                   27.1262
_cell_angle_alpha                97.1179
_cell_angle_beta                 92.9818
_cell_angle_gamma                96.63713
loop_
_atom_site_label
_atom_site_type_symbol
_atom_site_fract_x
_atom_site_fract_y
_atom_site_fract_z
     1  S          0.56414140       0.17545600       0.73506300
     2  S          0.43585860       0.82454400       0.26493700
     3  S         -0.00816150       0.45147700       0.64162200
     4  S          0.00816150       0.54852300       0.35837800
     5  S          0.01585140       0.50762600       0.83671200
     6  S         -0.01585140       0.49237400       0.16328800
     7  O          0.48174000       0.15592000       0.87681800
     8  O          0.51826000       0.84408000       0.12318200
     9  O          0.26214000       0.04042180       0.81000700
    10  O          0.73786000       0.95957820       0.18999300
    11  H          0.13160000       0.00030000       0.83111100
    12  H          0.86840000      -0.00030000       0.16888900
    13  O          0.65226000       0.56080180       0.57681700
    14  O          0.34774000       0.43919820       0.42318300
    15  O          0.51256000       0.70780180       0.63107700
    16  O          0.48744000       0.29219820       0.36892300
    17  O          0.88916000       0.51512000       0.93890700
    18  O          0.11084000       0.48488000       0.06109300
    19  O          0.25405000       0.44062000       0.96854700
    20  O          0.74595000       0.55938000       0.03145300
    21  H          0.21260000       0.45730000      -0.00172000
    22  H          0.78740000       0.54270000       0.00172000
    23  N          0.26504000       0.32212000       0.69553800
    24  N          0.73496000       0.67788000       0.30446200
    25  N          0.03134000       0.47384190       0.74107700
    26  N         -0.03134000       0.52615810       0.25892300
    27  N          0.29294000       0.34489190       0.78427700
    28  N          0.70706000       0.65510810       0.21572300
    29  C          0.35295000       0.29312000       0.73929900
    30  C          0.64705000       0.70688000       0.26070100
    31  C          0.10605000       0.41392000       0.69880900
    32  C          0.89395000       0.58608000       0.30119100
    33  C          0.13105000       0.43342000       0.78216900
    34  C          0.86895000       0.56658000       0.21783100
    35  C          0.66365000       0.17213000       0.79937100
    36  C          0.33635000       0.82787000       0.20062900
    37  H          0.81388900       0.12303700       0.80061900
    38  H          0.18611100       0.87696300       0.19938100
    39  H          0.73136500       0.25701000       0.81383900
    40  H          0.26863500       0.74299000       0.18616100
    41  C          0.45455000       0.12142000       0.83232110
    42  C          0.54545000       0.87858000       0.16767890
    43  C          0.81004000       0.58063000       0.66187100
    44  C          0.18996000       0.41937000       0.33812900
    45  H          0.69080900       0.55720600       0.68719100
    46  H          0.30919100       0.44279400       0.31280900
    47  H          0.93765600       0.65151700       0.67660700
    48  H          0.06234400       0.34848300       0.32339300
    49  C          0.64555000       0.61782000       0.61912100
    50  C          0.35445000       0.38218000       0.38087900
    51  C          0.20986000       0.44283000       0.88303100
    52  C          0.79014000       0.55717000       0.11696900
    53  H          0.20076700       0.35300500       0.87388700
    54  H          0.79923300       0.64699500       0.12611300
    55  H          0.39786000       0.47842700       0.88402400
    56  H          0.60214000       0.52157300       0.11597600
    57  C          0.10545000       0.46912000       0.93344100
    58  C          0.89455000       0.53088000       0.06655900
    59  O          0.37674000       0.13160180       0.53068700
    60  O          0.62326000       0.86839820       0.46931300
    61  O          0.91636000       0.08961190       0.37113700
    62  O          0.08364000       0.91038810       0.62886300
    63  N          0.72995000       0.37992000       0.49359100
    64  N          0.27005000       0.62008000       0.50640900
    65  H          0.60640000       0.40130000       0.47071100
    66  H          0.39360000       0.59870000       0.52928900
    67  H          0.75340000       0.41730000       0.52321200
    68  H          0.24660000       0.58270000       0.47678800
    69  N          0.05154000       0.25652000       0.51459800
    70  N          0.94846000       0.74348000       0.48540200
    71  N          0.83116000       0.22672000       0.43412800
    72  N          0.16884000       0.77328000       0.56587200
    73  H          0.71250000       0.25120000       0.41189000
    74  H          0.28750000       0.74880000       0.58811000
    75  C          0.87325000       0.28702000       0.48097100
    76  C          0.12675000       0.71298000       0.51902900
    77  C          0.19245000       0.16512000       0.49887100
    78  C          0.80755000       0.83488000       0.50112900
    79  C          0.16805000       0.10012000       0.45094100
    80  C          0.83195000       0.89988000       0.54905900
    81  H          0.27326300       0.03685800       0.44152100
    82  H          0.72673700       0.96314200       0.55847900
    83  C         -0.01835000       0.13452000       0.41882100
    84  C          0.01835000       0.86548000       0.58117900
    85  C          0.41447000       0.20123000       0.57985120
    86  C          0.58553000       0.79877000       0.42014880
    87  H          0.45799400       0.28861200       0.57731600
    88  H          0.54200600       0.71138800       0.42268400
    89  H          0.55939100       0.17259700       0.59826900
    90  H          0.44060900       0.82740300       0.40173100
    91  H          0.25078300       0.18875200       0.59672300
    92  H          0.74921700       0.81124800       0.40327700
    93  C          0.09156000       0.00783000       0.34648120
    94  C          0.90844000      -0.00783000       0.65351880
    95  H          0.03648800      -0.00934500       0.31161500
    96  H          0.96351200       0.00934500       0.68838500
    97  H          0.07934400       0.93077300       0.36070200
    98  H          0.92065600       0.06922700       0.63929800
    99  H          0.27488300       0.04762500       0.35073800
   100  H          0.72511700       0.95237500       0.64926200
   101  O          0.36746000       0.75112180       0.94301700
   102  O          0.63254000       0.24887820       0.05698300
   103  O          0.72796000       0.84477180       0.79293700
   104  O          0.27204000       0.15522820       0.20706300
   105  N          0.12535000       0.03473000       0.93970100
   106  N          0.87465000       0.96527000       0.06029900
   107  H          0.23560000       0.07930000       0.92181200
   108  H          0.76440000       0.92070000       0.07818800
   109  H          0.14060000       0.05130000       0.97191200
   110  H          0.85940000       0.94870000       0.02808800
   111  N          0.75056000       0.89332000       0.94450800
   112  N          0.24944000       0.10668000       0.05549200
   113  N          0.92176000       0.93342000       0.86640800
   114  N          0.07824000       0.06658000       0.13359200
   115  C          0.92815000       0.95212000       0.91640100
   116  C          0.07185000       0.04788000       0.08359900
   117  C          0.55655000       0.81352000       0.91910100
   118  C          0.44345000       0.18648000       0.08089900
   119  C          0.52844000       0.78763000       0.86739110
   120  C          0.47156000       0.21237000       0.13260890
   121  H          0.38945200       0.73053800       0.85088200
   122  H          0.61054800       0.26946200       0.14911800
   123  C          0.71945000       0.85202000       0.84237100
   124  C          0.28055000       0.14798000       0.15762900
   125  C          0.36904000       0.78023000      -0.00371890
   126  C          0.63096000       0.21977000       0.00371890
   127  H          0.37890800       0.86913000       0.00507200
   128  H          0.62109200       0.13087000      -0.00507200
   129  H          0.52317300       0.75066600       0.01159200
   130  H          0.47682700       0.24933400       0.98840800
   131  H          0.20634300       0.74011500       0.00770300
   132  H          0.79365700       0.25988500       0.99229700
   133  C          0.50863000       0.76743000       0.76270120
   134  C          0.49137000       0.23257000       0.23729880
   135  H          0.53160200       0.77421000       0.72817500
   136  H          0.46839800       0.22579000       0.27182500
   137  H          0.33939400       0.79502500       0.77158600
   138  H          0.66060600       0.20497500       0.22841400
   139  H          0.50955600       0.68183600       0.76828500
   140  H          0.49044400       0.31816400       0.23171500
