data_ZIJHEH
_symmetry_space_group_name_H-M    'P1'
_symmetry_Int_Tables_number       1
loop_
_symmetry_equiv_pos_site_id
_symmetry_equiv_pos_as_xyz
1 x,y,z
_cell_length_a                   8.8674
_cell_length_b                   6.1023
_cell_length_c                   15.5537
_cell_angle_alpha                90.0
_cell_angle_beta                 103.91311
_cell_angle_gamma                90.0
loop_
_atom_site_label
_atom_site_type_symbol
_atom_site_fract_x
_atom_site_fract_y
_atom_site_fract_z
     1  C          0.25007000       0.11249000       0.33014000
     2  C          0.74993000       0.61249000       0.66986000
     3  C          0.19166000       0.04101300       0.24354000
     4  C          0.80834000       0.54101300       0.75646000
     5  C          0.08487000       0.16791100       0.18504000
     6  C          0.91513000       0.66791100       0.81496000
     7  C          0.03537000       0.36471000       0.20964000
     8  C          0.96463000       0.86471000       0.79036000
     9  C          0.09377000       0.43301200       0.29514000
    10  C          0.90623000       0.93301200       0.70486000
    11  C          0.19927000       0.31101000       0.35474000
    12  C          0.80073000       0.81101000       0.64526000
    13  I          0.40783400       0.92546400       0.41963300
    14  I          0.59216600       0.42546400       0.58036700
    15  F          0.23724000       0.85224000       0.21642000
    16  F          0.76276000       0.35224000       0.78358000
    17  F          0.03224000       0.09256000       0.10192000
    18  F          0.96776000       0.59256000       0.89808000
    19  I          0.87551600       0.55436600       0.11793200
    20  I          0.12448400       0.05436600       0.88206800
    21  F          0.04564000       0.62436000       0.32333000
    22  F          0.95436000       0.12436000       0.67667000
    23  F          0.24884000       0.38166000       0.43692000
    24  F          0.75116000       0.88166000       0.56308000
    25  C          0.51167000       0.85041100       0.83085000
    26  C          0.48833000       0.35041100       0.16915000
    27  C          0.44048000       0.64851100       0.82935000
    28  C          0.55952000       0.14851100       0.17065000
    29  H          0.47040000       0.54970000       0.87760000
    30  H          0.52960000       0.04970000       0.12240000
    31  C          0.32148000       0.59251200       0.75385000
    32  C          0.67852000       0.09251200       0.24615000
    33  H          0.26990000       0.45550000       0.75180000
    34  H          0.73010000       0.95550000       0.24820000
    35  C          0.28017000       0.73381300       0.68385000
    36  C          0.71983000       0.23381300       0.31615000
    37  C          0.35537000       0.93231600       0.68774000
    38  C          0.64463000       0.43231600       0.31226000
    39  H          0.32660000       0.03140000       0.63940000
    40  H          0.67340000       0.53140000       0.36060000
    41  C          0.47238000      -0.00968900       0.76064000
    42  C          0.52762000       0.49031100       0.23936000
    43  H          0.52460000       0.12660000       0.76170000
    44  H          0.47540000       0.62660000       0.23830000
    45  S          0.67084170       0.90783000       0.92428110
    46  S          0.32915830       0.40783000       0.07571890
    47  O          0.64195000       0.76339000      -0.00477000
    48  O          0.35805000       0.26339000       0.00477000
    49  N          0.63037000       0.16371000       0.93904000
    50  N          0.36963000       0.66371000       0.06096000
    51  C          0.15749000       0.67291900       0.60145000
    52  C          0.84251000       0.17291900       0.39855000
    53  H          0.10050000       0.80470000       0.57620000
    54  H          0.89950000       0.30470000       0.42380000
    55  H          0.08500000       0.56720000       0.61690000
    56  H          0.91500000       0.06720000       0.38310000
    57  H          0.20740000       0.60730000       0.55780000
    58  H          0.79260000       0.10730000       0.44220000
    59  H          0.53630000       0.17400000       0.92770000
    60  H          0.46370000       0.67400000       0.07230000
    61  H          0.67770000       0.20280000       0.98710000
    62  H          0.32230000       0.70280000       0.01290000
