data_ZIJYEA
_symmetry_space_group_name_H-M    'P1'
_symmetry_Int_Tables_number       1
loop_
_symmetry_equiv_pos_site_id
_symmetry_equiv_pos_as_xyz
1 x,y,z
_cell_length_a                   9.42894
_cell_length_b                   14.23205
_cell_length_c                   13.90724
_cell_angle_alpha                90.0
_cell_angle_beta                 104.3123
_cell_angle_gamma                90.0
loop_
_atom_site_label
_atom_site_type_symbol
_atom_site_fract_x
_atom_site_fract_y
_atom_site_fract_z
     1  P          0.60705120       0.63030700       0.25294700
     2  P          0.39294880       0.13030700       0.74705300
     3  P          0.82013110       0.56241800       0.26737700
     4  P          0.17986890       0.06241800       0.73262300
     5  N          0.80304000       0.39333000       0.15793000
     6  N          0.19696000       0.89333000       0.84207000
     7  N          0.74194000       0.51453000       0.06073000
     8  N          0.25806000       0.01453000       0.93927000
     9  C          0.87275000       0.33973000       0.25003000
    10  C          0.12725000       0.83973000       0.74997000
    11  H          0.86212800       0.37789900       0.30646700
    12  H          0.13787200       0.87789900       0.69353300
    13  C          0.92406000       0.53954000       0.59853000
    14  C          0.07594000       0.03954000       0.40147000
    15  H          0.02149900       0.52986100       0.63126200
    16  H          0.97850100       0.02986100       0.36873800
    17  C          0.39575000       0.28353000       0.26743000
    18  C          0.60425000       0.78353000       0.73257000
    19  H          0.33368100       0.23179800       0.25393200
    20  H          0.66631900       0.73179800       0.74606800
    21  C          0.69976000       0.43824000       0.88927000
    22  C          0.30024000       0.93824000       0.11073000
    23  H          0.62832200       0.48630300       0.86519000
    24  H          0.37167800       0.98630300       0.13481000
    25  H          0.66078000       0.37833500       0.86398800
    26  H          0.33922000       0.87833500       0.13601200
    27  H          0.78667400       0.45116000       0.86741100
    28  H          0.21332600       0.95116000       0.13258900
    29  C          0.03536000       0.33124000       0.25714000
    30  C          0.96464000       0.83124000       0.74286000
    31  H          0.05021700       0.29242800       0.20400400
    32  H          0.94978300       0.79242800       0.79599600
    33  H          0.08319800       0.30338400       0.31958400
    34  H          0.91680200       0.80338400       0.68041600
    35  H          0.07550200       0.39252400       0.25226600
    36  H          0.92449800       0.89252400       0.74773400
    37  C          0.49196000       0.29454000       0.36103000
    38  C          0.50804000       0.79454000       0.63897000
    39  H          0.49479100       0.24968300       0.41011200
    40  H          0.50520900       0.74968300       0.58988800
    41  C          0.66428000       0.89574000       0.44395000
    42  C          0.33572000       0.39574000       0.55605000
    43  H          0.67031800       0.95007900       0.48180000
    44  H          0.32968200       0.45007900       0.51820000
    45  C          0.56345000       0.63704000       0.97786000
    46  C          0.43655000       0.13704000       0.02214000
    47  H          0.53923800       0.60865200       0.91324000
    48  H          0.46076200       0.10865200       0.08676000
    49  H          0.55105700       0.70387800       0.97134400
    50  H          0.44894300       0.20387800       0.02865600
    51  H          0.49994300       0.61266100       0.01630500
    52  H          0.50005700       0.11266100       0.98369500
    53  C          0.77495000       0.36033000       0.06083000
    54  C          0.22505000       0.86033000       0.93917000
    55  C          0.39415000       0.35083000       0.19493000
    56  C          0.60585000       0.85083000       0.80507000
    57  H          0.33100000       0.34380900       0.13234300
    58  H          0.66900000       0.84380900       0.86765700
    59  C          0.67585000       0.52673000       0.33513000
    60  C          0.32415000       0.02673000       0.66487000
    61  C          0.78866000       0.26064000       0.03264000
    62  C          0.21134000       0.76064000       0.96736000
    63  H          0.88818400       0.24043100       0.05710700
    64  H          0.11181600       0.74043100       0.94289300
    65  H          0.76101800       0.25491900       0.96157900
    66  H          0.23898200       0.75491900       0.03842100
    67  H          0.72562800       0.22215500       0.06072800
    68  H          0.27437200       0.72215500       0.93927200
    69  C          0.58145000       0.44073000       0.30903000
    70  C          0.41855000       0.94073000       0.69097000
    71  C          0.72215000       0.61463000       0.02993000
    72  C          0.27785000       0.11463000       0.97007000
    73  H          0.74647200       0.65220300       0.09079700
    74  H          0.25352800       0.15220300       0.90920300
    75  C          0.63375000       0.56953000       0.49953000
    76  C          0.36625000       0.06953000       0.50047000
    77  H          0.53638600       0.58053400       0.46714600
    78  H          0.46361400       0.08053400       0.53285400
    79  C          0.73645000       0.43663000       0.00113000
    80  C          0.26355000       0.93663000      -0.00113000
    81  C          0.80046000       0.24583000       0.25814000
    82  C          0.19954000       0.74583000       0.74186000
    83  H          0.69597700       0.25272700       0.23723200
    84  H          0.30402300       0.75272700       0.76276800
    85  H          0.82750900       0.22464500       0.32571800
    86  H          0.17249100       0.72464500       0.67428200
    87  H          0.83188400       0.20065700       0.21647000
    88  H          0.16811600       0.70065700       0.78353000
    89  C          0.78105000       0.48643000       0.15683000
    90  C          0.21895000       0.98643000       0.84317000
    91  C          0.52246000       0.78794000       0.32924000
    92  C          0.47754000       0.28794000       0.67076000
    93  H          0.43253400       0.76932600       0.28923200
    94  H          0.56746600       0.26932600       0.71076800
    95  C          0.68036000       0.57913000       0.60253000
    96  C          0.31964000       0.07913000       0.39747000
    97  H          0.61301300       0.59571400       0.63845100
    98  H          0.38698700       0.09571400       0.36154900
    99  C          0.77936000       0.76124000       0.39293000
   100  C          0.22064000       0.26124000       0.60707000
   101  H          0.86239800       0.72492200       0.39609400
   102  H          0.13760200       0.22492200       0.60390600
   103  C          0.73385000       0.54343000       0.44573000
   104  C          0.26615000       0.04343000       0.55427000
   105  C          0.78887000       0.84284000       0.44814000
   106  C          0.21113000       0.34284000       0.55186000
   107  H          0.87843800       0.86202800       0.48789700
   108  H          0.12156200       0.36202800       0.51210300
   109  C          0.48555000       0.42803000       0.21483000
   110  C          0.51445000       0.92803000       0.78517000
   111  H          0.48354900       0.47227400       0.16530300
   112  H          0.51645100       0.97227400       0.83469700
   113  C          0.53167000       0.86874000       0.38415000
   114  C          0.46833000       0.36874000       0.61585000
   115  H          0.44847300       0.90492000       0.38098200
   116  H          0.55152700       0.40492000       0.61901800
   117  C          0.83115000       0.64223000       0.96947000
   118  C          0.16885000       0.14223000       0.03053000
   119  H          0.92774200       0.62284100       0.00426100
   120  H          0.07225800       0.12284100      -0.00426100
   121  H          0.82937200       0.70909900       0.96060000
   122  H          0.17062800       0.20909900       0.03940000
   123  H          0.80460000       0.61192600       0.90592100
   124  H          0.19540000       0.11192600       0.09407900
   125  C          0.87805000       0.52873000       0.49473000
   126  C          0.12195000       0.02873000       0.50527000
   127  H          0.94542800       0.51149300       0.45900500
   128  H          0.05457200       0.01149300       0.54099500
   129  C          0.64545000       0.73373000       0.33263000
   130  C          0.35455000       0.23373000       0.66737000
   131  C          0.58255000       0.37193000       0.38033000
   132  C          0.41745000       0.87193000       0.61967000
   133  H          0.64607300       0.37828500       0.44276900
   134  H          0.35392700       0.87828500       0.55723100
   135  C          0.82356000       0.56444000       0.65123000
   136  C          0.17644000       0.06444000       0.34877000
   137  H          0.85307000       0.57119600       0.71981400
   138  H          0.14693000       0.07119600       0.28018600
   139  S          0.14093120       0.46121800       0.94071300
   140  S          0.85906880       0.96121800       0.05928700
   141  F          0.23684000       0.33303000       0.83677000
   142  F          0.76316000       0.83303000       0.16323000
   143  F          0.32494000       0.47163000       0.82708000
   144  F          0.67506000       0.97163000       0.17292000
   145  F          0.40143000       0.38763000       0.95758000
   146  F          0.59857000       0.88763000       0.04242000
   147  O          0.09724000       0.38253000      -0.00923000
   148  O          0.90276000       0.88253000       0.00923000
   149  O          0.03324000       0.49154000       0.85447000
   150  O          0.96676000      -0.00846000       0.14553000
   151  O          0.21765000       0.53373000       0.00433000
   152  O          0.78235000       0.03373000      -0.00433000
   153  C          0.28286000       0.41164000       0.88606000
   154  C          0.71714000       0.91164000       0.11394000
   155  F          0.73194000       0.11913000       0.51882000
   156  F          0.26806000       0.61913000       0.48118000
   157  F          0.86044000       0.28613000       0.53902000
   158  F          0.13956000       0.78613000       0.46098000
   159  C          0.77256000       0.10174000       0.69294000
   160  C          0.22744000       0.60174000       0.30706000
   161  H          0.72681500       0.04332700       0.68530400
   162  H          0.27318500       0.54332700       0.31469600
   163  C          0.78575000       0.15364000       0.61233000
   164  C          0.21425000       0.65364000       0.38767000
   165  C          0.84965000       0.24014000       0.62143000
   166  C          0.15035000       0.74014000       0.37857000
   167  C          0.90656000       0.27924000       0.71384000
   168  C          0.09344000       0.77924000       0.28616000
   169  H          0.95032300       0.33816600       0.72014300
   170  H          0.04967700       0.83816600       0.27985700
   171  C          0.89656000       0.22844000       0.79654000
   172  C          0.10344000       0.72844000       0.20346000
   173  H          0.93441400       0.25366800       0.85927100
   174  H          0.06558600       0.75366800       0.14072900
   175  C          0.83126000       0.14094000       0.78784000
   176  C          0.16874000       0.64094000       0.21216000
   177  H          0.82596900       0.10772700       0.84443300
   178  H          0.17403100       0.60772700       0.15556700
