data_ZILDIL
_symmetry_space_group_name_H-M    'P1'
_symmetry_Int_Tables_number       1
loop_
_symmetry_equiv_pos_site_id
_symmetry_equiv_pos_as_xyz
1 x,y,z
_cell_length_a                   8.73131
_cell_length_b                   9.088712
_cell_length_c                   11.689414
_cell_angle_alpha                80.42911
_cell_angle_beta                 69.46911
_cell_angle_gamma                85.4951
loop_
_atom_site_label
_atom_site_type_symbol
_atom_site_fract_x
_atom_site_fract_y
_atom_site_fract_z
     1  N          0.51878160       0.93312850       0.67765870
     2  N          0.48121840       0.06687150       0.32234130
     3  H          0.56718100       0.91861600       0.59924300
     4  H          0.43281900       0.08138400       0.40075700
     5  N          0.44692160       0.89055860       0.88241870
     6  N          0.55307840       0.10944140       0.11758130
     7  N          0.22607160       0.07756140       0.92480880
     8  N          0.77392840       0.92243860       0.07519120
     9  N          0.17705160       0.20536150       0.74704870
    10  N          0.82294840       0.79463850       0.25295130
    11  O          0.02613140       0.25641120       0.93978890
    12  O          0.97386860       0.74358880       0.06021110
    13  O          0.32664150       0.15918130       0.55218890
    14  O          0.67335850       0.84081870       0.44781110
    15  C          0.54572000       0.85384820       0.77543850
    16  C          0.45428000       0.14615180       0.22456150
    17  H          0.62646000       0.77947400       0.76929400
    18  H          0.37354000       0.22052600       0.23070600
    19  C          0.35047190       0.00136170       0.84815850
    20  C          0.64952810      -0.00136170       0.15184150
    21  C          0.39100190       0.02989170       0.72291850
    22  C          0.60899810       0.97010830       0.27708150
    23  C          0.30292000       0.13286170       0.66377850
    24  C          0.69708000       0.86713830       0.33622150
    25  C          0.13698190       0.18491170       0.87561850
    26  C          0.86301810       0.81508830       0.12438150
    27  C          0.07242000       0.31272000       0.69873820
    28  C          0.92758000       0.68728000       0.30126180
    29  H          0.96005800       0.28586400       0.74011900
    30  H          0.03994200       0.71413600       0.25988100
    31  H          0.10119200       0.31170900       0.61170800
    32  H          0.89880800       0.68829100       0.38829200
    33  H          0.08746300       0.41082900       0.71271900
    34  H          0.91253700       0.58917100       0.28728100
    35  C          0.18502000       0.04743190       0.05842150
    36  C          0.81498000       0.95256810       0.94157850
    37  H          0.26177100       0.09540700       0.08132600
    38  H          0.73822900       0.90459300       0.91867400
    39  H          0.18957200       0.94171600       0.08419800
    40  H          0.81042800       0.05828400       0.91580200
    41  H          0.07664500       0.08531000       0.09777000
    42  H          0.92335500       0.91469000       0.90223000
    43  O          0.61573150       0.24404130       0.87577890
    44  O          0.38426850       0.75595870       0.12422110
    45  H          0.56847000       0.23052700       0.95078400
    46  H          0.43153000       0.76947300       0.04921600
    47  O          0.34515140       0.37864120       0.01608100
    48  O          0.65484860       0.62135880       0.98391900
    49  O          0.15961160       0.87678140       0.48714890
    50  O          0.84038840       0.12321860       0.51285110
    51  O          0.96115830       0.93249150       0.65614880
    52  O          0.03884170       0.06750850       0.34385120
    53  H          0.93625400      -0.00722000       0.60472000
    54  H          0.06374600       0.00722000       0.39528000
    55  C          0.53942000       0.35519180       0.82347840
    56  C          0.46058000       0.64480820       0.17652160
    57  C          0.60602000       0.39942000       0.69791840
    58  C          0.39398000       0.60058000       0.30208160
    59  H          0.70212100       0.35397200       0.65220600
    60  H          0.29787900       0.64602800       0.34779400
    61  C          0.53042000       0.51084190       0.63962840
    62  C          0.46958000       0.48915810       0.36037160
    63  H          0.57800400       0.54157100       0.55513000
    64  H          0.42199600       0.45842900       0.44487000
    65  C          0.38432000       0.57792170       0.70517850
    66  C          0.61568000       0.42207830       0.29482150
    67  C          0.31866190       0.53516170       0.83366850
    68  C          0.68133810       0.46483830       0.16633150
    69  H          0.22226600       0.58026400       0.87935600
    70  H          0.77773400       0.41973600       0.12064400
    71  C          0.39614190       0.42698170       0.89228850
    72  C          0.60385810       0.57301830       0.10771150
    73  C          0.30272000       0.68642170       0.63798840
    74  C          0.69728000       0.31357830       0.36201160
    75  H          0.35586900       0.70663300       0.55302300
    76  H          0.64413100       0.29336700       0.44697700
    77  C          0.16222000       0.76028180       0.68241840
    78  C          0.83778000       0.23971820       0.31758160
    79  H          0.10659600       0.74668200       0.76723600
    80  H          0.89340400       0.25331800       0.23276400
    81  C          0.09242000       0.86193180       0.60236840
    82  C          0.90758000       0.13806820       0.39763160
    83  C          0.20162000       0.45039190       0.08986160
    84  C          0.79838000       0.54960810       0.91013840
    85  H          0.11078900       0.43347800       0.06583600
    86  H          0.88921100       0.56652200       0.93416400
    87  H          0.21899900       0.55567000       0.07798500
    88  H          0.78100100       0.44433000       0.92201500
    89  H          0.17869500       0.41026200       0.17534500
    90  H          0.82130500       0.58973800       0.82465500
