data_ZILJOX
_symmetry_space_group_name_H-M    'P1'
_symmetry_Int_Tables_number       1
loop_
_symmetry_equiv_pos_site_id
_symmetry_equiv_pos_as_xyz
1 x,y,z
_cell_length_a                   11.91173
_cell_length_b                   12.43044
_cell_length_c                   18.46866
_cell_angle_alpha                103.487716
_cell_angle_beta                 94.976717
_cell_angle_gamma                117.216616
loop_
_atom_site_label
_atom_site_type_symbol
_atom_site_fract_x
_atom_site_fract_y
_atom_site_fract_z
     1  O         -0.00830860       0.60503140       0.29282800
     2  O          0.00830860       0.39496860       0.70717200
     3  O          0.50222130       0.19294130       0.20629800
     4  O          0.49777870       0.80705870       0.79370200
     5  H          0.52511200       0.14365300       0.21837200
     6  H          0.47488800       0.85634700       0.78162800
     7  N          0.83402160       0.34916150       0.12455100
     8  N          0.16597840       0.65083850       0.87544900
     9  N          0.71674160       0.43021150       0.18749900
    10  N          0.28325840       0.56978850       0.81250100
    11  H          0.65564000       0.35243700       0.18228500
    12  H          0.34436000       0.64756300       0.81771500
    13  N          0.47515160       0.43101150       0.17404100
    14  N          0.52484840       0.56898850       0.82595900
    15  N          0.28953160       0.26291160       0.09319100
    16  N          0.71046840       0.73708840       0.90680900
    17  C          0.81836190       0.44680180       0.15807110
    18  C          0.18163810       0.55319820       0.84192890
    19  C          0.70307190       0.53861190       0.22882120
    20  C          0.29692810       0.46138810       0.77117880
    21  H          0.71618300       0.59616500       0.19740800
    22  H          0.28381700       0.40383500       0.80259200
    23  H          0.76993700       0.58707100       0.27712000
    24  H          0.23006300       0.41292900       0.72288000
    25  C          0.57065190       0.49235190       0.24606110
    26  C          0.42934810       0.50764810       0.75393890
    27  H          0.55511600       0.43119900       0.27515700
    28  H          0.44488400       0.56880100       0.72484300
    29  H          0.56406100       0.56481300       0.27727400
    30  H          0.43593900       0.43518700       0.72272600
    31  C          0.37550190       0.32120190       0.16283120
    32  C          0.62449810       0.67879810       0.83716880
    33  C          0.94492000       0.36422000       0.09010130
    34  C          0.05508000       0.63578000       0.90989870
    35  H         -0.01452400       0.44795800       0.08102700
    36  H          0.01452400       0.55204200       0.91897300
    37  H          0.91373400       0.29764700       0.04004300
    38  H          0.08626600       0.70235300       0.95995700
    39  C          0.04522000       0.35502000       0.14005150
    40  C          0.95478000       0.64498000       0.85994850
    41  H          0.11640500       0.36405200       0.11454200
    42  H          0.88359500       0.63594800       0.88545800
    43  H          0.00559400       0.27214300       0.14908200
    44  H         -0.00559400       0.72785700       0.85091800
    45  H          0.07881700       0.42278700       0.18898000
    46  H          0.92118300       0.57721300       0.81102000
    47  C          0.74272000       0.21870190       0.12301120
    48  C          0.25728000       0.78129810       0.87698880
    49  H          0.71728700       0.22166400       0.17276900
    50  H          0.28271300       0.77833600       0.82723100
    51  H          0.78736700       0.16786700       0.11664700
    52  H          0.21263300       0.83213300       0.88335300
    53  C          0.62212000       0.15282000       0.06017130
    54  C          0.37788000       0.84718000       0.93982870
    55  H          0.64606000       0.14754600       0.01054700
    56  H          0.35394000       0.85245400       0.98945300
    57  H          0.57583900       0.20123500       0.06676300
    58  H          0.42416100       0.79876500       0.93323700
    59  H          0.56592500       0.06696200       0.06235700
    60  H          0.43407500       0.93303800       0.93764300
    61  C          0.31852000       0.32552000       0.03377120
    62  C          0.68148000       0.67448000       0.96622880
    63  H          0.34265600       0.41567000       0.05654100
    64  H          0.65734400       0.58433000       0.94345900
    65  H          0.23846200       0.28549500      -0.00646200
    66  H          0.76153800       0.71450500       0.00646200
    67  C          0.42542000       0.32142000      -0.00368130
    68  C          0.57458000       0.67858000       0.00368130
    69  H          0.43899600       0.36790400       0.95882300
    70  H          0.56100400       0.63209600       0.04117700
    71  H          0.40055900       0.23279200       0.97056300
    72  H          0.59944100       0.76720800       0.02943700
    73  H          0.50559700       0.36086100       0.03534500
    74  H          0.49440300       0.63913900       0.96465500
    75  C          0.18742000       0.13042000       0.07043130
    76  C          0.81258000       0.86958000       0.92956870
    77  H          0.11578500       0.11845900       0.03220300
    78  H          0.88421500       0.88154100       0.96779700
    79  H          0.15308700       0.11179500       0.11562800
    80  H          0.84691300       0.88820500       0.88437200
    81  C          0.22992000       0.03562000       0.03710140
    82  C          0.77008000       0.96438000       0.96289860
    83  H          0.25962500       0.04989400       0.99060800
    84  H          0.74037500       0.95010600       0.00939200
    85  H          0.15683600       0.94908400       0.02461700
    86  H          0.84316400       0.05091600       0.97538300
    87  H          0.30084600       0.04630100       0.07444800
    88  H          0.69915400       0.95369900       0.92555200
    89  C          0.91606190       0.57896180       0.16449110
    90  C          0.08393810       0.42103820       0.83550890
    91  C          0.91752000       0.62792000       0.10398120
    92  C          0.08248000       0.37208000       0.89601880
    93  H          0.85843700       0.57495200       0.05628800
    94  H          0.14156300       0.42504800       0.94371200
    95  C          0.00502000       0.75402000       0.11307130
    96  C         -0.00502000       0.24598000       0.88692870
    97  H          0.00649100       0.78781300       0.07181300
    98  H         -0.00649100       0.21218700       0.92818700
    99  C          0.09042000       0.83032000       0.18338130
   100  C          0.90958000       0.16968000       0.81661870
   101  H          0.15056100       0.91669000       0.18981500
   102  H          0.84943900       0.08331000       0.81018500
   103  C          0.08952000       0.78282000       0.24389130
   104  C          0.91048000       0.21718000       0.75610870
   105  H          0.14916700       0.83692700       0.29121700
   106  H          0.85083300       0.16307300       0.70878300
   107  C          0.00141190       0.65544190       0.23672120
   108  C         -0.00141190       0.34455810       0.76327880
   109  C          0.34289190       0.25560180       0.22278110
   110  C          0.65710810       0.74439820       0.77721890
   111  C          0.25152000       0.26372000       0.26295120
   112  C          0.74848000       0.73628000       0.73704880
   113  H          0.20845300       0.30711500       0.25014700
   114  H          0.79154700       0.69288500       0.74985300
   115  C          0.22272000       0.20952000       0.32101130
   116  C          0.77728000       0.79048000       0.67898870
   117  H          0.16132400       0.21680400       0.34845800
   118  H          0.83867600       0.78319600       0.65154200
   119  C          0.28422000       0.14432000       0.33885130
   120  C          0.71578000       0.85568000       0.66114870
   121  H          0.26373600       0.10533500       0.37799000
   122  H          0.73626400       0.89466500       0.62201000
   123  C          0.37532000       0.13602000       0.29977120
   124  C          0.62468000       0.86398000       0.70022880
   125  H          0.41592000       0.09024400       0.31203100
   126  H          0.58408000       0.90975600       0.68796900
   127  C          0.40892190       0.19407180       0.24218110
   128  C          0.59107810       0.80592820       0.75781890
   129  O          0.59260130       0.06491120       0.24207800
   130  O          0.40739870       0.93508880       0.75792200
   131  O          0.85443140       0.30505140       0.58365800
   132  O          0.14556860       0.69494860       0.41634200
   133  H          0.90117700       0.32788400       0.62708000
   134  H          0.09882300       0.67211600       0.37292000
   135  N          0.77863170       0.90930820       0.28513100
   136  N          0.22136830       0.09069180       0.71486900
   137  N          0.65620170       0.94411840       0.36702100
   138  N          0.34379830       0.05588160       0.63297900
   139  N          0.64871170       0.17094160       0.40582100
   140  N          0.35128830       0.82905840       0.59417900
   141  H          0.65650700       0.15115700       0.35827200
   142  H          0.34349300       0.84884300       0.64172800
   143  N          0.79193170       0.38218160       0.42157900
   144  N          0.20806830       0.61781840       0.57842100
   145  C          0.66572000       0.90634810       0.29749120
   146  C          0.33428000       0.09365190       0.70250880
   147  C          0.53652000       0.94088810       0.38128120
   148  C          0.46348000       0.05911190       0.61871880
   149  H          0.49059200       0.87272400       0.40420700
   150  H          0.50940800       0.12727600       0.59579300
   151  H          0.47944600       0.92181800       0.33239100
   152  H          0.52055400       0.07818200       0.66760900
   153  C          0.56582000       0.06825190       0.43510120
   154  C          0.43418000       0.93174810       0.56489880
   155  H          0.48401700       0.06941500       0.43904600
   156  H          0.51598300       0.93058500       0.56095400
   157  H          0.61033200       0.08093400       0.48671300
   158  H          0.38966800       0.91906600       0.51328700
   159  C          0.71178190       0.29130190       0.44773110
   160  C          0.28821810       0.70869810       0.55226890
   161  C          0.80212000       0.87598000       0.20910130
   162  C          0.19788000       0.12402000       0.79089870
   163  H          0.71873900       0.81105500       0.17316600
   164  H          0.28126100       0.18894500       0.82683400
   165  H          0.85902800       0.83792300       0.21038600
   166  H          0.14097200       0.16207700       0.78961400
   167  C          0.86453000      -0.01052000       0.17985140
   168  C          0.13547000       0.01052000       0.82014860
   169  H          0.88113100       0.96260500       0.12958600
   170  H          0.11886900       0.03739500       0.87041400
   171  H          0.94643300       0.05470100       0.21558200
   172  H          0.05356700       0.94529900       0.78441800
   173  H          0.80621500       0.02447700       0.17547400
   174  H          0.19378500       0.97552300       0.82452600
   175  C          0.88802000       0.96228000       0.34992130
   176  C          0.11198000       0.03772000       0.65007870
   177  H          0.88902300       0.03374900       0.38795400
   178  H          0.11097700       0.96625100       0.61204600
   179  H          0.96963500      -0.00329800       0.33193400
   180  H          0.03036500       0.00329800       0.66806600
   181  C          0.88282000       0.86518000       0.38827140
   182  C          0.11718000       0.13482000       0.61172860
   183  H          0.88565100       0.79598700       0.35153300
   184  H          0.11434900       0.20401300       0.64846700
   185  H          0.80224900       0.83081000       0.40630600
   186  H          0.19775100       0.16919000       0.59369400
   187  H          0.95699700       0.90603900       0.43174700
   188  H          0.04300300       0.09396100       0.56825300
   189  C          0.81182000       0.35292000       0.34337120
   190  C          0.18818000       0.64708000       0.65662880
   191  H          0.84646400       0.43147500       0.32826200
   192  H          0.15353600       0.56852500       0.67173800
   193  H          0.72699000       0.29051100       0.30805500
   194  H          0.27301000       0.70948900       0.69194500
   195  C          0.90352000       0.29982000       0.33466130
   196  C          0.09648000       0.70018000       0.66533870
   197  H          0.90660200       0.27532700       0.28075400
   198  H          0.09339800       0.72467300       0.71924600
   199  H          0.87285300       0.22506600       0.35258200
   200  H          0.12714700       0.77493400       0.64741800
   201  H         -0.00964100       0.36471100       0.36500100
   202  H          0.00964100       0.63528900       0.63499900
   203  C          0.86452000       0.51672000       0.46899120
   204  C          0.13548000       0.48328000       0.53100880
   205  H          0.95217900       0.55636100       0.45855300
   206  H          0.04782100       0.44363900       0.54144700
   207  H          0.87442100       0.52101600       0.52353300
   208  H          0.12557900       0.47898400       0.47646700
   209  C          0.79963000       0.59202000       0.45473150
   210  C          0.20037000       0.40798000       0.54526850
   211  H          0.78411200       0.58362800       0.40019400
   212  H          0.21588800       0.41637200       0.59980600
   213  H          0.85574100       0.68181600       0.48424400
   214  H          0.14425900       0.31818400       0.51575600
   215  H          0.71681500       0.55945300       0.47049900
   216  H          0.28318500       0.44054700       0.52950100
   217  C          0.55722000       0.85591810       0.22941110
   218  C          0.44278000       0.14408190       0.77058890
   219  C          0.48172000       0.72578000       0.19329120
   220  C          0.51828000       0.27422000       0.80670880
   221  H          0.50801700       0.67011700       0.20663000
   222  H          0.49198300       0.32988300       0.79337000
   223  C          0.36882000       0.67498000       0.13827130
   224  C          0.63118000       0.32502000       0.86172870
   225  H          0.31796000       0.58574900       0.11460000
   226  H          0.68204000       0.41425100       0.88540000
   227  C          0.33202000       0.75598000       0.11861130
   228  C          0.66798000       0.24402000       0.88138870
   229  H          0.25393700       0.72224000       0.08180900
   230  H          0.74606300       0.27776000       0.91819100
   231  C          0.40722000       0.88638000       0.15180120
   232  C          0.59278000       0.11362000       0.84819880
   233  H          0.38126600       0.94099800       0.13648700
   234  H          0.61873400       0.05900200       0.86351300
   235  C          0.52112000       0.93896810       0.20765110
   236  C          0.47888000       0.06103190       0.79234890
   237  C          0.68537190       0.32717180       0.52435110
   238  C          0.31462810       0.67282820       0.47564890
   239  C          0.58502000       0.35452000       0.52877130
   240  C          0.41498000       0.64548000       0.47122870
   241  H          0.53284800       0.34521900       0.48329900
   242  H          0.46715200       0.65478100       0.51670100
   243  C          0.56032000       0.39512000       0.59859130
   244  C          0.43968000       0.60488000       0.40140870
   245  H          0.49234700       0.41486400       0.60173500
   246  H          0.50765300       0.58513600       0.39826500
   247  C          0.63682000       0.40662000       0.66429130
   248  C          0.36318000       0.59338000       0.33570870
   249  H          0.62218200       0.43672400       0.71275400
   250  H          0.37781800       0.56327600       0.28724600
   251  C          0.73342000       0.37516190       0.66052120
   252  C          0.26658000       0.62483810       0.33947880
   253  H          0.78210500       0.38078000       0.70616400
   254  H          0.21789500       0.61922000       0.29383600
   255  C          0.76078190       0.33499180       0.59026110
   256  C          0.23921810       0.66500820       0.40973890
   257  O          0.78522000       0.03002000       0.53032120
   258  O          0.21478000       0.96998000       0.46967880
   259  H          0.76061800       0.00549800       0.48083100
   260  H          0.23938200      -0.00549800       0.51916900
   261  H          0.80780500       0.11026200       0.54435900
   262  H          0.19219500       0.88973800       0.45564100
