data_ZILMUF
_symmetry_space_group_name_H-M    'P1'
_symmetry_Int_Tables_number       1
loop_
_symmetry_equiv_pos_site_id
_symmetry_equiv_pos_as_xyz
1 x,y,z
_cell_length_a                   31.588216
_cell_length_b                   5.89533
_cell_length_c                   14.47287
_cell_angle_alpha                90.0
_cell_angle_beta                 90.5485
_cell_angle_gamma                90.0
loop_
_atom_site_label
_atom_site_type_symbol
_atom_site_fract_x
_atom_site_fract_y
_atom_site_fract_z
     1  C          0.32569500       0.39043000       0.57439120
     2  C          0.67430500       0.39043000       0.92560880
     3  C          0.82569500       0.89043000       0.57439120
     4  C          0.17430500       0.89043000       0.92560880
     5  C          0.67430500       0.60957000       0.42560880
     6  C          0.32569500       0.60957000       0.07439120
     7  C          0.17430500       0.10957000       0.42560880
     8  C          0.82569500       0.10957000       0.07439120
     9  C          0.35597600       0.44973000       0.63911120
    10  C          0.64402400       0.44973000       0.86088880
    11  C          0.85597600       0.94973000       0.63911120
    12  C          0.14402400       0.94973000       0.86088880
    13  C          0.64402400       0.55027000       0.36088880
    14  C          0.35597600       0.55027000       0.13911120
    15  C          0.14402400       0.05027000       0.36088880
    16  C          0.85597600       0.05027000       0.13911120
    17  H          0.37320900       0.57604800       0.63147200
    18  H          0.62679100       0.57604800       0.86852800
    19  H          0.87320900       0.07604800       0.63147200
    20  H          0.12679100       0.07604800       0.86852800
    21  H          0.62679100       0.42395200       0.36852800
    22  H          0.37320900       0.42395200       0.13147200
    23  H          0.12679100       0.92395200       0.36852800
    24  H          0.87320900       0.92395200       0.13147200
    25  C          0.35936600       0.31273000       0.71538120
    26  C          0.64063400       0.31273000       0.78461880
    27  C          0.85936600       0.81273000       0.71538120
    28  C          0.14063400       0.81273000       0.78461880
    29  C          0.64063400       0.68727000       0.28461880
    30  C          0.35936600       0.68727000       0.21538120
    31  C          0.14063400       0.18727000       0.28461880
    32  C          0.85936600       0.18727000       0.21538120
    33  C          0.33348600       0.12773000       0.72922130
    34  C          0.66651400       0.12773000       0.77077870
    35  C          0.83348600       0.62773000       0.72922130
    36  C          0.16651400       0.62773000       0.77077870
    37  C          0.66651400       0.87227000       0.27077870
    38  C          0.33348600       0.87227000       0.22922130
    39  C          0.16651400       0.37227000       0.27077870
    40  C          0.83348600       0.37227000       0.22922130
    41  H          0.33664000       0.03608000       0.78112900
    42  H          0.66336000       0.03608000       0.71887100
    43  H          0.83664000       0.53608000       0.78112900
    44  H          0.16336000       0.53608000       0.71887100
    45  H          0.66336000       0.96392000       0.21887100
    46  H          0.33664000       0.96392000       0.28112900
    47  H          0.16336000       0.46392000       0.21887100
    48  H          0.83664000       0.46392000       0.28112900
    49  C          0.30276500       0.08353000       0.66340120
    50  C          0.69723500       0.08353000       0.83659880
    51  C          0.80276500       0.58353000       0.66340120
    52  C          0.19723500       0.58353000       0.83659880
    53  C          0.69723500       0.91647000       0.33659880
    54  C          0.30276500       0.91647000       0.16340120
    55  C          0.19723500       0.41647000       0.33659880
    56  C          0.80276500       0.41647000       0.16340120
    57  C          0.29729500       0.21133000       0.58278120
    58  C          0.70270500       0.21133000       0.91721880
    59  C          0.79729500       0.71133000       0.58278120
    60  C          0.20270500       0.71133000       0.91721880
    61  C          0.70270500       0.78867000       0.41721880
    62  C          0.29729500       0.78867000       0.08278120
    63  C          0.20270500       0.28867000       0.41721880
    64  C          0.79729500       0.28867000       0.08278120
    65  C          0.26425500       0.17263000       0.51062120
    66  C          0.73574500       0.17263000       0.98937880
    67  C          0.76425500       0.67263000       0.51062120
    68  C          0.23574500       0.67263000       0.98937880
    69  C          0.73574500       0.82737000       0.48937880
    70  C          0.26425500       0.82737000       0.01062120
    71  C          0.23574500       0.32737000       0.48937880
    72  C          0.76425500       0.32737000       0.01062120
    73  H          0.26370100       0.03457000       0.47950400
    74  H          0.73629900       0.03457000       0.02049600
    75  H          0.76370100       0.53457000       0.47950400
    76  H          0.23629900       0.53457000       0.02049600
    77  H          0.73629900       0.96543000       0.52049600
    78  H          0.26370100       0.96543000       0.97950400
    79  H          0.23629900       0.46543000       0.52049600
    80  H          0.76370100       0.46543000       0.97950400
    81  N          0.32710500       0.52103000       0.48754110
    82  N          0.67289500       0.52103000       0.01245890
    83  N          0.82710500       0.02103000       0.48754110
    84  N          0.17289500       0.02103000       0.01245890
    85  N          0.67289500       0.47897000       0.51245890
    86  N          0.32710500       0.47897000       0.98754110
    87  N          0.17289500      -0.02103000       0.51245890
    88  N          0.82710500      -0.02103000       0.98754110
    89  O          0.33300500       0.41483000       0.41655100
    90  O          0.66699500       0.41483000       0.08344900
    91  O          0.83300500       0.91483000       0.41655100
    92  O          0.16699500       0.91483000       0.08344900
    93  O          0.66699500       0.58517000       0.58344900
    94  O          0.33300500       0.58517000       0.91655100
    95  O          0.16699500       0.08517000       0.58344900
    96  O          0.83300500       0.08517000       0.91655100
    97  O          0.32396500       0.72692000       0.49269110
    98  O          0.67603500       0.72692000       0.00730890
    99  O          0.82396500       0.22692000       0.49269110
   100  O          0.17603500       0.22692000       0.00730890
   101  O          0.67603500       0.27308000       0.50730890
   102  O          0.32396500       0.27308000      -0.00730890
   103  O          0.17603500       0.77308000       0.50730890
   104  O          0.82396500       0.77308000      -0.00730890
   105  N          0.39343600       0.35884000       0.78292120
   106  N          0.60656400       0.35884000       0.71707880
   107  N          0.89343600       0.85884000       0.78292120
   108  N          0.10656400       0.85884000       0.71707880
   109  N          0.60656400       0.64116000       0.21707880
   110  N          0.39343600       0.64116000       0.28292120
   111  N          0.10656400       0.14116000       0.21707880
   112  N          0.89343600       0.14116000       0.28292120
   113  O          0.40210600       0.21274000       0.83877120
   114  O          0.59789400       0.21274000       0.66122880
   115  O          0.90210600       0.71274000       0.83877120
   116  O          0.09789400       0.71274000       0.66122880
   117  O          0.59789400       0.78726000       0.16122880
   118  O          0.40210600       0.78726000       0.33877120
   119  O          0.09789400       0.28726000       0.16122880
   120  O          0.90210600       0.28726000       0.33877120
   121  O          0.41081600       0.54124000       0.77941120
   122  O          0.58918400       0.54124000       0.72058880
   123  O          0.91081600       0.04124000       0.77941120
   124  O          0.08918400       0.04124000       0.72058880
   125  O          0.58918400       0.45876000       0.22058880
   126  O          0.41081600       0.45876000       0.27941120
   127  O          0.08918400       0.95876000       0.22058880
   128  O          0.91081600       0.95876000       0.27941120
   129  N          0.27531500       0.88637000       0.68274110
   130  N          0.72468500       0.88637000       0.81725890
   131  N          0.77531500       0.38637000       0.68274110
   132  N          0.22468500       0.38637000       0.81725890
   133  N          0.72468500       0.11363000       0.31725890
   134  N          0.27531500       0.11363000       0.18274110
   135  N          0.22468500       0.61363000       0.31725890
   136  N          0.77531500       0.61363000       0.18274110
   137  O          0.28140600       0.78437000       0.75420120
   138  O          0.71859400       0.78437000       0.74579880
   139  O          0.78140600       0.28437000       0.75420120
   140  O          0.21859400       0.28437000       0.74579880
   141  O          0.71859400       0.21563000       0.24579880
   142  O          0.28140600       0.21563000       0.25420120
   143  O          0.21859400       0.71563000       0.24579880
   144  O          0.78140600       0.71563000       0.25420120
   145  O          0.24840500       0.83337000       0.62719110
   146  O          0.75159500       0.83337000       0.87280890
   147  O          0.74840500       0.33337000       0.62719110
   148  O          0.25159500       0.33337000       0.87280890
   149  O          0.75159500       0.16663000       0.37280890
   150  O          0.24840500       0.16663000       0.12719110
   151  O          0.25159500       0.66663000       0.37280890
   152  O          0.74840500       0.66663000       0.12719110
   153  C          0.47967700       0.09784000       0.62680160
   154  C          0.52032300       0.09784000       0.87319840
   155  C          0.97967700       0.59784000       0.62680160
   156  C          0.02032300       0.59784000       0.87319840
   157  C          0.52032300       0.90216000       0.37319840
   158  C          0.47967700       0.90216000       0.12680160
   159  C          0.02032300       0.40216000       0.37319840
   160  C          0.97967700       0.40216000       0.12680160
   161  H          0.50397600       0.11540100       0.66284100
   162  H          0.49602400       0.11540100       0.83715900
   163  H          0.00397600       0.61540100       0.66284100
   164  H         -0.00397600       0.61540100       0.83715900
   165  H          0.49602400       0.88459900       0.33715900
   166  H          0.50397600       0.88459900       0.16284100
   167  H         -0.00397600       0.38459900       0.33715900
   168  H          0.00397600       0.38459900       0.16284100
   169  C          0.45156800       0.92776000       0.64630180
   170  C          0.54843200       0.92776000       0.85369820
   171  C          0.95156800       0.42776000       0.64630180
   172  C          0.04843200       0.42776000       0.85369820
   173  C          0.54843200       0.07224000       0.35369820
   174  C          0.45156800       0.07224000       0.14630180
   175  C          0.04843200       0.57224000       0.35369820
   176  C          0.95156800       0.57224000       0.14630180
   177  H          0.45755000       0.83376000       0.69634200
   178  H          0.54245000       0.83376000       0.80365800
   179  H          0.95755000       0.33376000       0.69634200
   180  H          0.04245000       0.33376000       0.80365800
   181  H          0.54245000       0.16624000       0.30365800
   182  H          0.45755000       0.16624000       0.19634200
   183  H          0.04245000       0.66624000       0.30365800
   184  H          0.95755000       0.66624000       0.19634200
   185  N          0.41620600       0.88877000       0.59809140
   186  N          0.58379400       0.88877000       0.90190860
   187  N          0.91620600       0.38877000       0.59809140
   188  N          0.08379400       0.38877000       0.90190860
   189  N          0.58379400       0.11123000       0.40190860
   190  N          0.41620600       0.11123000       0.09809140
   191  N          0.08379400       0.61123000       0.40190860
   192  N          0.91620600       0.61123000       0.09809140
   193  C          0.40909700       0.02724000       0.52723150
   194  C          0.59090300       0.02724000       0.97276850
   195  C          0.90909700       0.52724000       0.52723150
   196  C          0.09090300       0.52724000       0.97276850
   197  C          0.59090300       0.97276000       0.47276850
   198  C          0.40909700       0.97276000       0.02723150
   199  C          0.09090300       0.47276000       0.47276850
   200  C          0.90909700       0.47276000       0.02723150
   201  H          0.38472600       0.00402700       0.49191300
   202  H          0.61527400       0.00402700       0.00808700
   203  H          0.88472600       0.50402700       0.49191300
   204  H          0.11527400       0.50402700       0.00808700
   205  H          0.61527400      -0.00402700       0.50808700
   206  H          0.38472600      -0.00402700      -0.00808700
   207  H          0.11527400       0.49597300       0.50808700
   208  H          0.88472600       0.49597300      -0.00808700
   209  C          0.43537600       0.20264000       0.50261150
   210  C          0.56462400       0.20264000      -0.00261150
   211  C          0.93537600       0.70264000       0.50261150
   212  C          0.06462400       0.70264000      -0.00261150
   213  C          0.56462400       0.79736000       0.49738850
   214  C          0.43537600       0.79736000       0.00261150
   215  C          0.06462400       0.29736000       0.49738850
   216  C          0.93537600       0.29736000       0.00261150
   217  H          0.42866800       0.29359200       0.45204700
   218  H          0.57133200       0.29359200       0.04795300
   219  H          0.92866800       0.79359200       0.45204700
   220  H          0.07133200       0.79359200       0.04795300
   221  H          0.57133200       0.70640800       0.54795300
   222  H          0.42866800       0.70640800       0.95204700
   223  H          0.07133200       0.20640800       0.54795300
   224  H          0.92866800       0.20640800       0.95204700
   225  C          0.47194600       0.24293000       0.55375140
   226  C          0.52805400       0.24293000       0.94624860
   227  C          0.97194600       0.74293000       0.55375140
   228  C          0.02805400       0.74293000       0.94624860
   229  C          0.52805400       0.75707000       0.44624860
   230  C          0.47194600       0.75707000       0.05375140
   231  C          0.02805400       0.25707000       0.44624860
   232  C          0.97194600       0.25707000       0.05375140
   233  C          0.50210600       0.42354000       0.53254140
   234  C          0.49789400       0.42354000       0.96745860
   235  C          0.00210600       0.92354000       0.53254140
   236  C         -0.00210600       0.92354000       0.96745860
   237  C          0.49789400       0.57646000       0.46745860
   238  C          0.50210600       0.57646000       0.03254140
   239  C         -0.00210600       0.07646000       0.46745860
   240  C          0.00210600       0.07646000       0.03254140
   241  H          0.52656600       0.43032100       0.56869100
   242  H          0.47343400       0.43032100       0.93130900
   243  H          0.02656600       0.93032100       0.56869100
   244  H          0.97343400       0.93032100       0.93130900
   245  H          0.47343400       0.56967900       0.43130900
   246  H          0.52656600       0.56967900       0.06869100
   247  H          0.97343400       0.06967900       0.43130900
   248  H          0.02656600       0.06967900       0.06869100
