data_ZIMCON
_symmetry_space_group_name_H-M    'P1'
_symmetry_Int_Tables_number       1
loop_
_symmetry_equiv_pos_site_id
_symmetry_equiv_pos_as_xyz
1 x,y,z
_cell_length_a                   11.9193
_cell_length_b                   10.1563
_cell_length_c                   25.2145
_cell_angle_alpha                90.0
_cell_angle_beta                 98.482
_cell_angle_gamma                90.0
loop_
_atom_site_label
_atom_site_type_symbol
_atom_site_fract_x
_atom_site_fract_y
_atom_site_fract_z
     1  I          0.65125300       0.78976600       0.29425100
     2  I          0.84874700       0.28976600       0.20574900
     3  I          0.34874700       0.21023400       0.70574900
     4  I          0.15125300       0.71023400       0.79425100
     5  I          0.60314300      -0.00945400       0.15725100
     6  I          0.89685700       0.49054600       0.34274900
     7  I          0.39685700       0.00945400       0.84274900
     8  I          0.10314300       0.50945400       0.65725100
     9  P          0.54517120       0.80247860       0.20490500
    10  P          0.95482880       0.30247860       0.29509500
    11  P          0.45482880       0.19752140       0.79509500
    12  P          0.04517120       0.69752140       0.70490500
    13  C          0.39525000       0.81664000       0.21002000
    14  C          0.10475000       0.31664000       0.28998000
    15  C          0.60475000       0.18336000       0.78998000
    16  C          0.89525000       0.68336000       0.71002000
    17  C          0.35395000       0.69224000       0.23573000
    18  C          0.14605000       0.19224000       0.26427000
    19  C          0.64605000       0.30776000       0.76427000
    20  C          0.85395000       0.80776000       0.73573000
    21  C          0.36955000       0.94144000       0.23983000
    22  C          0.13045000       0.44144000       0.26017000
    23  C          0.63045000       0.05856000       0.76017000
    24  C          0.86955000       0.55856000       0.73983000
    25  C          0.57315000       0.65124000       0.16862000
    26  C          0.92685000       0.15124000       0.33138000
    27  C          0.42685000       0.34876000       0.83138000
    28  C          0.07315000       0.84876000       0.66862000
    29  C          0.49796000       0.64784000       0.11352000
    30  C          0.00204000       0.14784000       0.38648000
    31  C          0.50204000       0.35216000       0.88648000
    32  C         -0.00204000       0.85216000       0.61352000
    33  C          0.69985000       0.63873000       0.16483000
    34  C          0.80015000       0.13873000       0.33517000
    35  C          0.30015000       0.36127000       0.83517000
    36  C          0.19985000       0.86127000       0.66483000
    37  H          0.35305000       0.82284000       0.17272000
    38  H          0.14695000       0.32284000       0.32728000
    39  H          0.64695000       0.17716000       0.82728000
    40  H          0.85305000       0.67716000       0.67272000
    41  H          0.36023100       0.61651000       0.21238000
    42  H          0.13976900       0.11651000       0.28762000
    43  H          0.63976900       0.38349000       0.78762000
    44  H          0.86023100       0.88349000       0.71238000
    45  H          0.27451100       0.70378400       0.24081400
    46  H          0.22548900       0.20378400       0.25918600
    47  H          0.72548900       0.29621600       0.75918600
    48  H          0.77451100       0.79621600       0.74081400
    49  H          0.40062100       0.67717800       0.27067000
    50  H          0.09937900       0.17717800       0.22933000
    51  H          0.59937900       0.32282200       0.72933000
    52  H          0.90062100       0.82282200       0.77067000
    53  H          0.39503000       0.01867000       0.22159000
    54  H          0.10497000       0.51867000       0.27841000
    55  H          0.60497000       0.98133000       0.77841000
    56  H          0.89503000       0.48133000       0.72159000
    57  H          0.40942600       0.93808200       0.27675000
    58  H          0.09057400       0.43808200       0.22325000
    59  H          0.59057400       0.06191800       0.72325000
    60  H          0.90942600       0.56191800       0.77675000
    61  H          0.28766000       0.94768000       0.24041300
    62  H          0.21234000       0.44768000       0.25958700
    63  H          0.71234000       0.05232000       0.75958700
    64  H          0.78766000       0.55232000       0.74041300
    65  H          0.55155000       0.57454000       0.18992000
    66  H          0.94845000       0.07454000       0.31008000
    67  H          0.44845000       0.42546000       0.81008000
    68  H          0.05155000       0.92546000       0.68992000
    69  H          0.41796000       0.65156100       0.11852000
    70  H          0.08204000       0.15156100       0.38148000
    71  H          0.58204000       0.34843900       0.88148000
    72  H          0.91796000       0.84843900       0.61852000
    73  H          0.51212500       0.56628100       0.09497000
    74  H         -0.01212500       0.06628100       0.40503000
    75  H          0.48787500       0.43371900       0.90503000
    76  H          0.01212500       0.93371900       0.59497000
    77  H          0.51582400       0.72357800       0.09226000
    78  H          0.98417600       0.22357800       0.40774000
    79  H          0.48417600       0.27642200       0.90774000
    80  H          0.01582400       0.77642200       0.59226000
    81  H          0.71417000       0.55398300       0.14841400
    82  H          0.78583000       0.05398300       0.35158600
    83  H          0.28583000       0.44601700       0.85158600
    84  H          0.21417000       0.94601700       0.64841400
    85  H          0.74375000       0.64386100       0.20083000
    86  H          0.75625000       0.14386100       0.29917000
    87  H          0.25625000       0.35613900       0.79917000
    88  H          0.24375000       0.85613900       0.70083000
    89  H          0.72269000       0.71037700       0.14261300
    90  H          0.77731000       0.21037700       0.35738700
    91  H          0.27731000       0.28962300       0.85738700
    92  H          0.22269000       0.78962300       0.64261300
    93  I          0.34411300       0.29963400       0.13286100
    94  I          0.15588700       0.79963400       0.36713900
    95  I          0.65588700       0.70036600       0.86713900
    96  I          0.84411300       0.20036600       0.63286100
    97  I          0.27517300       0.46770400       0.99104900
    98  I          0.22482700       0.96770400       0.50895100
    99  I          0.72482700       0.53229600       0.00895100
   100  I          0.77517300       0.03229600       0.49104900
   101  P          0.22864120       0.28730140       0.04598500
   102  P          0.27135880       0.78730140       0.45401500
   103  P          0.77135880       0.71269860       0.95401500
   104  P          0.72864120       0.21269860       0.54598500
   105  C          0.07965000       0.30006000       0.05482000
   106  C          0.42035000       0.80006000       0.44518000
   107  C          0.92035000       0.69994000       0.94518000
   108  C          0.57965000       0.19994000       0.55482000
   109  C          0.05366000       0.42726000       0.08163000
   110  C          0.44634000       0.92726000       0.41837000
   111  C          0.94634000       0.57274000       0.91837000
   112  C          0.55366000       0.07274000       0.58163000
   113  C          0.04315000       0.17676000       0.08343000
   114  C          0.45685000       0.67676000       0.41657000
   115  C          0.95685000       0.82324000       0.91657000
   116  C          0.54315000       0.32324000       0.58343000
   117  C          0.25725000       0.13166000       0.01482000
   118  C          0.24275000       0.63166000       0.48518000
   119  C          0.74275000       0.86834000       0.98518000
   120  C          0.75725000       0.36834000       0.51482000
   121  C          0.17785000       0.11336000       0.96258000
   122  C          0.32215000       0.61336000       0.53742000
   123  C          0.82215000       0.88664000       0.03742000
   124  C          0.67785000       0.38664000       0.46258000
   125  C          0.38145000       0.11487000       0.00853000
   126  C          0.11855000       0.61487000       0.49147000
   127  C          0.61855000       0.88513000       0.99147000
   128  C          0.88145000       0.38513000       0.50853000
   129  H          0.03445000       0.30096000       0.01812000
   130  H          0.46555000       0.80096000       0.48188000
   131  H          0.96555000       0.69904000       0.98188000
   132  H          0.53445000       0.19904000       0.51812000
   133  H          0.07663000       0.50196000       0.06119000
   134  H          0.42337000       0.00196000       0.43881000
   135  H          0.92337000       0.49804000       0.93881000
   136  H          0.57663000      -0.00196000       0.56119000
   137  H          0.09532600       0.42981800       0.11816000
   138  H          0.40467400       0.92981800       0.38184000
   139  H          0.90467400       0.57018200       0.88184000
   140  H          0.59532600       0.07018200       0.61816000
   141  H          0.97193000       0.43251800       0.08301400
   142  H          0.52807000       0.93251800       0.41698600
   143  H          0.02807000       0.56748200       0.91698600
   144  H          0.47193000       0.06748200       0.58301400
   145  H          0.09182100       0.16622200       0.11807000
   146  H          0.40817900       0.66622200       0.38193000
   147  H          0.90817900       0.83377800       0.88193000
   148  H          0.59182100       0.33377800       0.61807000
   149  H          0.05023100       0.09898000       0.06117000
   150  H          0.44976900       0.59898000       0.43883000
   151  H          0.94976900       0.90102000       0.93883000
   152  H          0.55023100       0.40102000       0.56117000
   153  H          0.96398900       0.18641700       0.08921700
   154  H          0.53601100       0.68641700       0.41078300
   155  H          0.03601100       0.81358300       0.91078300
   156  H          0.46398900       0.31358300       0.58921700
   157  H          0.23905000       0.06036000       0.03952000
   158  H          0.26095000       0.56036000       0.46048000
   159  H          0.76095000       0.93964000       0.96048000
   160  H          0.73905000       0.43964000       0.53952000
   161  H          0.09946000       0.12673900       0.96876000
   162  H          0.40054000       0.62673900       0.53124000
   163  H          0.90054000       0.87326100       0.03124000
   164  H          0.59946000       0.37326100       0.46876000
   165  H          0.18632500       0.02401400       0.94892000
   166  H          0.31367500       0.52401400       0.55108000
   167  H          0.81367500       0.97598600       0.05108000
   168  H          0.68632500       0.47598600       0.44892000
   169  H          0.19652200       0.17742600       0.93615000
   170  H          0.30347800       0.67742600       0.56385000
   171  H          0.80347800       0.82257400       0.06385000
   172  H          0.69652200       0.32257400       0.43615000
   173  H          0.42836000       0.11924000       0.04383000
   174  H          0.07164000       0.61924000       0.45617000
   175  H          0.57164000       0.88076000       0.95617000
   176  H          0.92836000       0.38076000       0.54383000
   177  H          0.40391000       0.18522300       0.98568700
   178  H          0.09609000       0.68522300       0.51431300
   179  H          0.59609000       0.81477700       0.01431300
   180  H          0.90391000       0.31477700       0.48568700
   181  H          0.39228000       0.02921800       0.99198500
   182  H          0.10772000       0.52921800       0.50801500
   183  H          0.60772000       0.97078200       0.00801500
   184  H          0.89228000       0.47078200       0.49198500
   185  I          0.68599300       0.26063400       0.08466100
   186  I          0.81400700       0.76063400       0.41533900
   187  I          0.31400700       0.73936600       0.91533900
   188  I          0.18599300       0.23936600       0.58466100
   189  I          0.07092300       0.81291400       0.15239200
   190  I          0.42907700       0.31291400       0.34760800
   191  I          0.92907700       0.18708600       0.84760800
   192  I          0.57092300       0.68708600       0.65239200
   193  I          0.17959400       0.79554400       0.05772200
   194  I          0.32040600       0.29554400       0.44227800
   195  I          0.82040600       0.20445600       0.94227800
   196  I          0.67959400       0.70445600       0.55772200
   197  I          0.96535600       0.82770400       0.25046200
   198  I          0.53464400       0.32770400       0.24953800
   199  I          0.03464400       0.17229600       0.74953800
   200  I          0.46535600       0.67229600       0.75046200
