data_ZIPGUD
_symmetry_space_group_name_H-M    'P1'
_symmetry_Int_Tables_number       1
loop_
_symmetry_equiv_pos_site_id
_symmetry_equiv_pos_as_xyz
1 x,y,z
_cell_length_a                   7.68418
_cell_length_b                   3.87144
_cell_length_c                   42.4695
_cell_angle_alpha                90.0
_cell_angle_beta                 91.9912
_cell_angle_gamma                90.0
loop_
_atom_site_label
_atom_site_type_symbol
_atom_site_fract_x
_atom_site_fract_y
_atom_site_fract_z
     1  O          0.78088120       0.17893000      -0.00063800
     2  O          0.71911880       0.67893000       0.50063800
     3  O          0.21911880       0.82107000       0.00063800
     4  O          0.28088120       0.32107000       0.49936200
     5  N          0.39306140       0.58713000       0.91105200
     6  N          0.10693860       0.08713000       0.58894800
     7  N          0.60693860       0.41287000       0.08894800
     8  N          0.89306140       0.91287000       0.41105200
     9  N          0.95216140       0.09553000       0.95790300
    10  N          0.54783860       0.59553000       0.54209700
    11  N          0.04783860       0.90447000       0.04209700
    12  N          0.45216140       0.40447000       0.45790300
    13  C          0.49395170       0.33343000       0.95930300
    14  C          0.00604830       0.83343000       0.54069700
    15  C          0.50604830       0.66657000       0.04069700
    16  C         -0.00604830       0.16657000       0.45930300
    17  H          0.46860000       0.24500000       0.97950000
    18  H          0.03140000       0.74500000       0.52050000
    19  H          0.53140000       0.75500000       0.02050000
    20  H          0.96860000       0.25500000       0.47950000
    21  C          0.36236160       0.45913000       0.93944300
    22  C          0.13763840       0.95913000       0.56055700
    23  C          0.63763840       0.54087000       0.06055700
    24  C          0.86236160       0.04087000       0.43944300
    25  H          0.24600000       0.45400000       0.94630000
    26  H          0.25400000       0.95400000       0.55370000
    27  H          0.75400000       0.54600000       0.05370000
    28  H          0.74600000       0.04600000       0.44630000
    29  C          0.55689170       0.59913000       0.90147300
    30  C          0.94310830       0.09913000       0.59852700
    31  C          0.44310830       0.40087000       0.09852700
    32  C          0.05689170       0.90087000       0.40147300
    33  H          0.57830000       0.69430000       0.88140000
    34  H          0.92170000       0.19430000       0.61860000
    35  H          0.42170000       0.30570000       0.11860000
    36  H          0.07830000       0.80570000       0.38140000
    37  C          0.69596160       0.47843000       0.91969300
    38  C          0.80403840      -0.02157000       0.58030700
    39  C          0.30403840       0.52157000       0.08030700
    40  C          0.19596160       0.02157000       0.41969300
    41  H          0.81110000       0.49020000       0.91230000
    42  H          0.68890000      -0.00980000       0.58770000
    43  H          0.18890000       0.50980000       0.08770000
    44  H          0.31110000       0.00980000       0.41230000
    45  C          0.66405160       0.33893000       0.94917300
    46  C          0.83594840       0.83893000       0.55082700
    47  C          0.33594840       0.66107000       0.05082700
    48  C          0.16405160       0.16107000       0.44917300
    49  C          0.80575160       0.19723000       0.97090300
    50  C          0.69424840       0.69723000       0.52909700
    51  C          0.19424840       0.80277000       0.02909700
    52  C          0.30575160       0.30277000       0.47090300
    53  H          0.03520000       0.00650000       0.97034000
    54  H          0.46480000       0.50650000       0.52966000
    55  H          0.96480000      -0.00650000       0.02966000
    56  H          0.53520000       0.49350000       0.47034000
    57  H          0.96420000       0.09250000       0.93694000
    58  H          0.53580000       0.59250000       0.56306000
    59  H          0.03580000       0.90750000       0.06306000
    60  H          0.46420000       0.40750000       0.43694000
    61  O          0.20564130       0.78693000       0.86497200
    62  O          0.29435870       0.28693000       0.63502800
    63  O          0.79435870       0.21307000       0.13502800
    64  O          0.70564130       0.71307000       0.36497200
    65  H          0.25130000       0.72370000       0.88395000
    66  H          0.24870000       0.22370000       0.61605000
    67  H          0.74870000       0.27630000       0.11605000
    68  H          0.75130000       0.77630000       0.38395000
    69  O          0.00917150       0.09123000       0.89018200
    70  O          0.49082850       0.59123000       0.60981800
    71  O         -0.00917150       0.90877000       0.10981800
    72  O          0.50917150       0.40877000       0.39018200
    73  O          0.41472130       0.23993000       0.83536300
    74  O          0.08527870       0.73993000       0.66463700
    75  O          0.58527870       0.76007000       0.16463700
    76  O          0.91472130       0.26007000       0.33536300
    77  O          0.39261130       0.92143000       0.79390200
    78  O          0.10738870       0.42143000       0.70609800
    79  O          0.60738870       0.07857000       0.20609800
    80  O          0.89261130       0.57857000       0.29390200
    81  N          0.33033140       0.10883000       0.81380200
    82  N          0.16966860       0.60883000       0.68619800
    83  N          0.66966860       0.89117000       0.18619800
    84  N          0.83033140       0.39117000       0.31380200
    85  C          0.03065160       0.16083000       0.83504300
    86  C          0.46934840       0.66083000       0.66495700
    87  C          0.96934840       0.83917000       0.16495700
    88  C          0.53065160       0.33917000       0.33504300
    89  C          0.14298150       0.19013000       0.81010300
    90  C          0.35701850       0.69013000       0.68989700
    91  C          0.85701850       0.80987000       0.18989700
    92  C          0.64298150       0.30987000       0.31010300
    93  C          0.08868170       0.31133000       0.78083300
    94  C          0.41131830       0.81133000       0.71916700
    95  C          0.91131830       0.68867000       0.21916700
    96  C          0.58868170       0.18867000       0.28083300
    97  H          0.16770000       0.32340000       0.76410000
    98  H          0.33230000       0.82340000       0.73590000
    99  H          0.83230000       0.67660000       0.23590000
   100  H          0.66770000       0.17660000       0.26410000
   101  C          0.91721820       0.41523000       0.77613300
   102  C          0.58278180       0.91523000       0.72386700
   103  C          0.08278180       0.58477000       0.22386700
   104  C          0.41721820       0.08477000       0.27613300
   105  H          0.87830000       0.50150000       0.75620000
   106  H          0.62170000       0.00150000       0.74380000
   107  H          0.12170000       0.49850000       0.24380000
   108  H          0.37830000      -0.00150000       0.25620000
   109  C          0.80258830       0.39343000       0.80046300
   110  C          0.69741170       0.89343000       0.69953700
   111  C          0.19741170       0.60657000       0.19953700
   112  C          0.30258830       0.10657000       0.30046300
   113  H          0.68530000       0.46620000       0.79720000
   114  H          0.81470000      -0.03380000       0.70280000
   115  H          0.31470000       0.53380000       0.20280000
   116  H          0.18530000       0.03380000       0.29720000
   117  C          0.85910830       0.26533000       0.82955300
   118  C          0.64089170       0.76533000       0.67044700
   119  C          0.14089170       0.73467000       0.17044700
   120  C          0.35910830       0.23467000       0.32955300
   121  H          0.77910000       0.24850000       0.84600000
   122  H          0.72090000       0.74850000       0.65400000
   123  H          0.22090000       0.75150000       0.15400000
   124  H          0.27910000       0.25150000       0.34600000
   125  C          0.08275160       0.00993000       0.86655300
   126  C          0.41724840       0.50993000       0.63344700
   127  C          0.91724840      -0.00993000       0.13344700
   128  C          0.58275160       0.49007000       0.36655300
