data_ZIPJAM
_symmetry_space_group_name_H-M    'P1'
_symmetry_Int_Tables_number       1
loop_
_symmetry_equiv_pos_site_id
_symmetry_equiv_pos_as_xyz
1 x,y,z
_cell_length_a                   10.04475
_cell_length_b                   12.94197
_cell_length_c                   15.83008
_cell_angle_alpha                69.05501
_cell_angle_beta                 80.8592
_cell_angle_gamma                89.9932
loop_
_atom_site_label
_atom_site_type_symbol
_atom_site_fract_x
_atom_site_fract_y
_atom_site_fract_z
     1  Cl         0.13552110       0.81103800       0.04977600
     2  Cl         0.86447890       0.18896200       0.95022400
     3  O          0.69083000       0.68573180       0.29380140
     4  O          0.30917000       0.31426820       0.70619860
     5  O          0.64343000       0.81826170       0.35154130
     6  O          0.35657000       0.18173830       0.64845870
     7  C          0.83685000       0.84733000       0.23526190
     8  C          0.16315000       0.15267000       0.76473810
     9  C          0.91884000       0.80303000       0.17842000
    10  C          0.08116000       0.19697000       0.82158000
    11  H          0.89830000       0.73060000       0.17990000
    12  H          0.10170000       0.26940000       0.82010000
    13  C          0.03115000       0.86673000       0.11942000
    14  C          0.96885000       0.13327000       0.88058000
    15  C          0.06406000       0.97263000       0.11542000
    16  C          0.93594000       0.02737000       0.88458000
    17  H          0.14130000       0.01460000       0.07500000
    18  H          0.85870000       0.98540000       0.92500000
    19  C          0.98066000       0.01573000       0.17242000
    20  C          0.01934000       0.98427000       0.82758000
    21  H          0.00070000       0.08840000       0.17020000
    22  H         -0.00070000       0.91160000       0.82980000
    23  C          0.86865000       0.95373000       0.23212000
    24  C          0.13135000       0.04627000       0.76788000
    25  H          0.81340000       0.98380000       0.27100000
    26  H          0.18660000       0.01620000       0.72900000
    27  C          0.71473000       0.78242000       0.29913190
    28  C          0.28527000       0.21758000       0.70086810
    29  H          0.61830000       0.65640000       0.33020000
    30  H          0.38170000       0.34360000       0.66980000
    31  Cl         0.34081890       0.18887800       0.96496600
    32  Cl         0.65918110       0.81112200       0.03503400
    33  O          0.85057000       0.20419180       0.67049140
    34  O          0.14943000       0.79580820       0.32950860
    35  O          0.78637000       0.33800170       0.72388130
    36  O          0.21363000       0.66199830       0.27611870
    37  C          0.65155000       0.16973000       0.78138190
    38  C          0.34845000       0.83027000       0.21861810
    39  C          0.56236000       0.20783000       0.83882000
    40  C          0.43764000       0.79217000       0.16118000
    41  H          0.57660000       0.28000000       0.83970000
    42  H          0.42340000       0.72000000       0.16030000
    43  C          0.45235000       0.13923000       0.89472000
    44  C          0.54765000       0.86077000       0.10528000
    45  C          0.42784000       0.03323000       0.89542000
    46  C          0.57216000       0.96677000       0.10458000
    47  H          0.35170000       0.98760000       0.93400000
    48  H          0.64830000       0.01240000       0.06600000
    49  C          0.51824000      -0.00423000       0.83772000
    50  C          0.48176000       0.00423000       0.16228000
    51  H          0.50380000       0.92340000       0.83730000
    52  H          0.49620000       0.07660000       0.16270000
    53  C          0.62945000       0.06313000       0.78072000
    54  C          0.37055000       0.93687000       0.21928000
    55  H          0.69010000       0.03680000       0.74150000
    56  H          0.30990000       0.96320000       0.25850000
    57  C          0.76917000       0.24573000       0.72251190
    58  C          0.23083000       0.75427000       0.27748810
    59  H          0.92260000       0.25130000       0.63730000
    60  H          0.07740000       0.74870000       0.36270000
    61  O          0.06522000       0.33230160       0.57199130
    62  O          0.93478000       0.66769840       0.42800870
    63  N          0.46472000       0.59306180       0.39905140
    64  N          0.53528000       0.40693820       0.60094860
    65  N          0.02262000       0.47322000       0.62287160
    66  N          0.97738000       0.52678000       0.37712840
    67  C          0.30222000       0.43792000       0.45759170
    68  C          0.69778000       0.56208000       0.54240830
    69  H          0.27420000       0.36750000       0.45830000
    70  H          0.72580000       0.63250000       0.54170000
    71  C          0.42163000       0.49382000       0.40197180
    72  C          0.57837000       0.50618000       0.59802820
    73  H          0.47430000       0.46020000       0.36470000
    74  H          0.52570000       0.53980000       0.63530000
    75  C          0.39013000       0.64032000       0.45137180
    76  C          0.60987000       0.35968000       0.54862820
    77  H          0.42070000       0.71060000       0.44950000
    78  H          0.57930000       0.28940000       0.55050000
    79  C          0.26973000       0.59062000       0.50837170
    80  C          0.73027000       0.40938000       0.49162830
    81  H          0.21840000       0.62650000       0.54440000
    82  H          0.78160000       0.37350000       0.45560000
    83  C          0.22563000       0.48712000       0.51170170
    84  C          0.77437000       0.51288000       0.48829830
    85  C          0.09723000       0.42542000       0.57209170
    86  C          0.90277000       0.57458000       0.42790830
    87  H          0.94960000       0.43530000       0.66230000
    88  H          0.05040000       0.56470000       0.33770000
    89  H          0.05130000       0.54030000       0.62220000
    90  H          0.94870000       0.45970000       0.37780000
    91  Cl         0.40538110       0.69032800       0.95426600
    92  Cl         0.59461890       0.30967200       0.04573400
    93  O          0.09013000       0.81329180       0.70616140
    94  O          0.90987000       0.18670820       0.29383860
    95  O          0.07083000       0.67954170       0.65015130
    96  O          0.92917000       0.32045830       0.34984870
    97  C          0.20725000       0.65213000       0.76661190
    98  C          0.79275000       0.34787000       0.23338810
    99  C          0.25764000       0.69713000       0.82372000
   100  C          0.74236000       0.30287000       0.17628000
   101  H          0.23600000       0.76920000       0.82200000
   102  H          0.76400000       0.23080000       0.17800000
   103  C          0.34005000       0.63493000       0.88292000
   104  C          0.65995000       0.36507000       0.11708000
   105  C          0.36986000       0.52943000       0.88732000
   106  C          0.63014000       0.47057000       0.11268000
   107  H          0.42410000       0.48690000       0.92970000
   108  H          0.57590000       0.51310000       0.07030000
   109  C          0.32016000       0.48573000       0.82972000
   110  C          0.67984000       0.51427000       0.17028000
   111  H          0.34190000       0.41360000       0.83160000
   112  H          0.65810000       0.58640000       0.16840000
   113  C          0.23865000       0.54693000       0.76932000
   114  C          0.76135000       0.45307000       0.23068000
   115  H          0.20440000       0.51690000       0.72980000
   116  H          0.79560000       0.48310000       0.27020000
   117  C          0.11623000       0.71642000       0.70207190
   118  C          0.88377000       0.28358000       0.29792810
   119  H          0.03240000       0.84340000       0.67330000
   120  H          0.96760000       0.15660000       0.32670000
   121  Cl         0.07011100       0.31140800       0.03890600
   122  Cl         0.92988900       0.68859200       0.96109400
   123  O          0.43943000       0.29471180       0.32998140
   124  O          0.56057000       0.70528820       0.67001860
   125  O          0.40043000       0.16074170       0.27642140
   126  O          0.59957000       0.83925830       0.72357860
   127  C          0.29385000       0.32993000       0.21972190
   128  C          0.70615000       0.67007000       0.78027810
   129  C          0.23205000       0.29083000       0.16362000
   130  C          0.76795000       0.70917000       0.83638000
   131  H          0.24610000       0.21850000       0.16290000
   132  H          0.75390000       0.78150000       0.83710000
   133  C          0.14955000       0.35923000       0.10882000
   134  C          0.85045000       0.64077000       0.89118000
   135  C          0.12887000       0.46493000       0.10842000
   136  C          0.87113000       0.53507000       0.89158000
   137  H          0.07260000       0.51120000       0.06960000
   138  H          0.92740000       0.48880000       0.93040000
   139  C          0.19026000       0.50283000       0.16472000
   140  C          0.80974000       0.49717000       0.83528000
   141  H          0.17590000       0.57510000       0.16520000
   142  H          0.82410000       0.42490000       0.83480000
   143  C          0.27335000       0.43463000       0.22072000
   144  C          0.72665000       0.56537000       0.77928000
   145  H          0.31580000       0.46040000       0.25960000
   146  H          0.68420000       0.53960000       0.74040000
   147  C          0.38313000       0.25332000       0.27787190
   148  C          0.61687000       0.74668000       0.72212810
   149  H          0.48550000       0.25140000       0.35930000
   150  H          0.51450000       0.74860000       0.64070000
   151  O          0.60462000       0.16640170       0.42803130
   152  O          0.39538000       0.83359830       0.57196870
   153  N          0.91492000       0.90533180       0.60203140
   154  N          0.08508000       0.09466820       0.39796860
   155  N          0.58442000       0.02482000       0.37874160
   156  N          0.41558000       0.97518000       0.62125840
   157  C          0.78172000       0.05982000       0.54393170
   158  C          0.21828000       0.94018000       0.45606830
   159  H          0.75380000       0.12990000       0.54370000
   160  H          0.24620000       0.87010000       0.45630000
   161  C          0.87323000       0.00382000       0.59925180
   162  C          0.12677000      -0.00382000       0.40074820
   163  H          0.90720000       0.03730000       0.63660000
   164  H          0.09280000       0.96270000       0.36340000
   165  C          0.86763000       0.85802000       0.54959190
   166  C          0.13237000       0.14198000       0.45040810
   167  H          0.89780000       0.78790000       0.55120000
   168  H          0.10220000       0.21210000       0.44880000
   169  C          0.77522000       0.90792000       0.49244170
   170  C          0.22478000       0.09208000       0.50755830
   171  H          0.74240000       0.87180000       0.45640000
   172  H          0.25760000       0.12820000       0.54360000
   173  C          0.73203000       0.01102000       0.48888170
   174  C          0.26797000       0.98898000       0.51111830
   175  C          0.63453000       0.07282000       0.42885170
   176  C          0.36547000       0.92718000       0.57114830
   177  H          0.52230000       0.06320000       0.34220000
   178  H          0.47770000       0.93680000       0.65780000
   179  H          0.60730000       0.96220000       0.37981900
   180  H          0.39270000       0.03780000       0.62018100
