data_ZIRYAE
_symmetry_space_group_name_H-M    'P1'
_symmetry_Int_Tables_number       1
loop_
_symmetry_equiv_pos_site_id
_symmetry_equiv_pos_as_xyz
1 x,y,z
_cell_length_a                   12.0202
_cell_length_b                   11.9532
_cell_length_c                   14.1743
_cell_angle_alpha                90.0
_cell_angle_beta                 103.1637
_cell_angle_gamma                90.0
loop_
_atom_site_label
_atom_site_type_symbol
_atom_site_fract_x
_atom_site_fract_y
_atom_site_fract_z
     1  O          0.36324100       0.81196900       0.63879800
     2  O          0.63675900       0.81196900       0.86120200
     3  O          0.86324100       0.31196900       0.63879800
     4  O          0.13675900       0.31196900       0.86120200
     5  O          0.63675900       0.18803100       0.36120200
     6  O          0.36324100       0.18803100       0.13879800
     7  O          0.13675900       0.68803100       0.36120200
     8  O          0.86324100       0.68803100       0.13879800
     9  H          0.37446300       0.82664800       0.58374700
    10  H          0.62553700       0.82664800       0.91625300
    11  H          0.87446300       0.32664800       0.58374700
    12  H          0.12553700       0.32664800       0.91625300
    13  H          0.62553700       0.17335200       0.41625300
    14  H          0.37446300       0.17335200       0.08374700
    15  H          0.12553700       0.67335200       0.41625300
    16  H          0.87446300       0.67335200       0.08374700
    17  O          0.36932110       0.47222100       0.69729900
    18  O          0.63067890       0.47222100       0.80270100
    19  O          0.86932110       0.97222100       0.69729900
    20  O          0.13067890       0.97222100       0.80270100
    21  O          0.63067890       0.52777900       0.30270100
    22  O          0.36932110       0.52777900       0.19729900
    23  O          0.13067890       0.02777900       0.30270100
    24  O          0.86932110       0.02777900       0.19729900
    25  H          0.37661700       0.50591200       0.64704000
    26  H          0.62338300       0.50591200       0.85296000
    27  H          0.87661700       0.00591200       0.64704000
    28  H          0.12338300       0.00591200       0.85296000
    29  H          0.62338300       0.49408800       0.35296000
    30  H          0.37661700       0.49408800       0.14704000
    31  H          0.12338300      -0.00591200       0.35296000
    32  H          0.87661700      -0.00591200       0.14704000
    33  O          0.37628110       0.63667100       0.58761800
    34  O          0.62371890       0.63667100       0.91238200
    35  O          0.87628110       0.13667100       0.58761800
    36  O          0.12371890       0.13667100       0.91238200
    37  O          0.62371890       0.36332900       0.41238200
    38  O          0.37628110       0.36332900       0.08761800
    39  O          0.12371890       0.86332900       0.41238200
    40  O          0.87628110       0.86332900       0.08761800
    41  N          0.26505120       0.77148110       0.96418100
    42  N          0.73494880       0.77148110       0.53581900
    43  N          0.76505120       0.27148110       0.96418100
    44  N          0.23494880       0.27148110       0.53581900
    45  N          0.73494880       0.22851890       0.03581900
    46  N          0.26505120       0.22851890       0.46418100
    47  N          0.23494880       0.72851890       0.03581900
    48  N          0.76505120       0.72851890       0.46418100
    49  C          0.34105120       0.66265120       0.74344100
    50  C          0.65894880       0.66265120       0.75655900
    51  C          0.84105120       0.16265120       0.74344100
    52  C          0.15894880       0.16265120       0.75655900
    53  C          0.65894880       0.33734880       0.25655900
    54  C          0.34105120       0.33734880       0.24344100
    55  C          0.15894880       0.83734880       0.25655900
    56  C          0.84105120       0.83734880       0.24344100
    57  C          0.29295130       0.69211130       0.89863110
    58  C          0.70704870       0.69211130       0.60136890
    59  C          0.79295130       0.19211130       0.89863110
    60  C          0.20704870       0.19211130       0.60136890
    61  C          0.70704870       0.30788870       0.10136890
    62  C          0.29295130       0.30788870       0.39863110
    63  C          0.20704870       0.80788870       0.10136890
    64  C          0.79295130       0.80788870       0.39863110
    65  C          0.31330130       0.73399130       0.81278110
    66  C          0.68669870       0.73399130       0.68721890
    67  C          0.81330130       0.23399130       0.81278110
    68  C          0.18669870       0.23399130       0.68721890
    69  C          0.68669870       0.26600870       0.18721890
    70  C          0.31330130       0.26600870       0.31278110
    71  C          0.18669870       0.76600870       0.18721890
    72  C          0.81330130       0.76600870       0.31278110
    73  H          0.30829000       0.81227100       0.80098300
    74  H          0.69171000       0.81227100       0.69901700
    75  H          0.80829000       0.31227100       0.80098300
    76  H          0.19171000       0.31227100       0.69901700
    77  H          0.69171000       0.18772900       0.19901700
    78  H          0.30829000       0.18772900       0.30098300
    79  H          0.19171000       0.68772900       0.19901700
    80  H          0.80829000       0.68772900       0.30098300
    81  C          0.36153130       0.70458130       0.65015110
    82  C          0.63846870       0.70458130       0.84984890
    83  C          0.86153130       0.20458130       0.65015110
    84  C          0.13846870       0.20458130       0.84984890
    85  C          0.63846870       0.29541870       0.34984890
    86  C          0.36153130       0.29541870       0.15015110
    87  C          0.13846870       0.79541870       0.34984890
    88  C          0.86153130       0.79541870       0.15015110
    89  C          0.34743130       0.54658130       0.76164110
    90  C          0.65256870       0.54658130       0.73835890
    91  C          0.84743130       0.04658130       0.76164110
    92  C          0.15256870       0.04658130       0.73835890
    93  C          0.65256870       0.45341870       0.23835890
    94  C          0.34743130       0.45341870       0.26164110
    95  C          0.15256870       0.95341870       0.23835890
    96  C          0.84743130       0.95341870       0.26164110
    97  C          0.32848140       0.50520130       0.84912120
    98  C          0.67151860       0.50520130       0.65087880
    99  C          0.82848140       0.00520130       0.84912120
   100  C          0.17151860       0.00520130       0.65087880
   101  C          0.67151860       0.49479870       0.15087880
   102  C          0.32848140       0.49479870       0.34912120
   103  C          0.17151860      -0.00520130       0.15087880
   104  C          0.82848140      -0.00520130       0.34912120
   105  H          0.33407000       0.42710800       0.86177000
   106  H          0.66593000       0.42710800       0.63823000
   107  H          0.83407000       0.92710800       0.86177000
   108  H          0.16593000       0.92710800       0.63823000
   109  H          0.66593000       0.57289200       0.13823000
   110  H          0.33407000       0.57289200       0.36177000
   111  H          0.16593000       0.07289200       0.13823000
   112  H          0.83407000       0.07289200       0.36177000
   113  C          0.30197140       0.57621140       0.91657120
   114  C          0.69802860       0.57621140       0.58342880
   115  C          0.80197140       0.07621140       0.91657120
   116  C          0.19802860       0.07621140       0.58342880
   117  C          0.69802860       0.42378860       0.08342880
   118  C          0.30197140       0.42378860       0.41657120
   119  C          0.19802860       0.92378860       0.08342880
   120  C          0.80197140       0.92378860       0.41657120
   121  H          0.28961700       0.54717200       0.97573500
   122  H          0.71038300       0.54717200       0.52426500
   123  H          0.78961700       0.04717200       0.97573500
   124  H          0.21038300       0.04717200       0.52426500
   125  H          0.71038300       0.45282800       0.02426500
   126  H          0.28961700       0.45282800       0.47573500
   127  H          0.21038300       0.95282800       0.02426500
   128  H          0.78961700       0.95282800       0.47573500
   129  N          0.08896110       0.64280110       0.52963100
   130  N          0.91103890       0.64280110       0.97036900
   131  N          0.58896110       0.14280110       0.52963100
   132  N          0.41103890       0.14280110       0.97036900
   133  N          0.91103890       0.35719890       0.47036900
   134  N          0.08896110       0.35719890       0.02963100
   135  N          0.41103890       0.85719890       0.47036900
   136  N          0.58896110       0.85719890       0.02963100
   137  C          0.01783120       0.63359120       0.70325100
   138  C          0.98216880       0.63359120       0.79674900
   139  C          0.51783120       0.13359120       0.70325100
   140  C          0.48216880       0.13359120       0.79674900
   141  C          0.98216880       0.36640880       0.29674900
   142  C          0.01783120       0.36640880       0.20325100
   143  C          0.48216880       0.86640880       0.29674900
   144  C          0.51783120       0.86640880       0.20325100
   145  C          0.06464130       0.53973130       0.66828110
   146  C          0.93535870       0.53973130       0.83171890
   147  C          0.56464130       0.03973130       0.66828110
   148  C          0.43535870       0.03973130       0.83171890
   149  C          0.93535870       0.46026870       0.33171890
   150  C          0.06464130       0.46026870       0.16828110
   151  C          0.43535870       0.96026870       0.33171890
   152  C          0.56464130       0.96026870       0.16828110
   153  H          0.07215500       0.47116900       0.70305900
   154  H          0.92784500       0.47116900       0.79694100
   155  H          0.57215500       0.97116900       0.70305900
   156  H          0.42784500       0.97116900       0.79694100
   157  H          0.92784500       0.52883100       0.29694100
   158  H          0.07215500       0.52883100       0.20305900
   159  H          0.42784500       0.02883100       0.29694100
   160  H          0.57215500       0.02883100       0.20305900
   161  C          0.10004130       0.54805130       0.58194110
   162  C          0.89995870       0.54805130       0.91805890
   163  C          0.60004130       0.04805130       0.58194110
   164  C          0.39995870       0.04805130       0.91805890
   165  C          0.89995870       0.45194870       0.41805890
   166  C          0.10004130       0.45194870       0.08194110
   167  C          0.39995870       0.95194870       0.41805890
   168  C          0.60004130       0.95194870       0.08194110
   169  H          0.13331000       0.48446600       0.55899700
   170  H          0.86669000       0.48446600       0.94100300
   171  H          0.63331000       0.98446600       0.55899700
   172  H          0.36669000       0.98446600       0.94100300
   173  H          0.86669000       0.51553400       0.44100300
   174  H          0.13331000       0.51553400       0.05899700
   175  H          0.36669000       0.01553400       0.44100300
   176  H          0.63331000       0.01553400       0.05899700
   177  C          0.00581130       0.73082130       0.64804120
   178  C         -0.00581130       0.73082130       0.85195880
   179  C          0.50581130       0.23082130       0.64804120
   180  C          0.49418870       0.23082130       0.85195880
   181  C         -0.00581130       0.26917870       0.35195880
   182  C          0.00581130       0.26917870       0.14804120
   183  C          0.49418870       0.76917870       0.35195880
   184  C          0.50581130       0.76917870       0.14804120
   185  H          0.97302000       0.79580500       0.66919700
   186  H          0.02698000       0.79580500       0.83080300
   187  H          0.47302000       0.29580500       0.66919700
   188  H          0.52698000       0.29580500       0.83080300
   189  H          0.02698000       0.20419500       0.33080300
   190  H          0.97302000       0.20419500       0.16919700
   191  H          0.52698000       0.70419500       0.33080300
   192  H          0.47302000       0.70419500       0.16919700
   193  C          0.04180140       0.73231130       0.56234120
   194  C          0.95819860       0.73231130       0.93765880
   195  C          0.54180140       0.23231130       0.56234120
   196  C          0.45819860       0.23231130       0.93765880
   197  C          0.95819860       0.26768870       0.43765880
   198  C          0.04180140       0.26768870       0.06234120
   199  C          0.45819860       0.76768870       0.43765880
   200  C          0.54180140       0.76768870       0.06234120
   201  H          0.03288100       0.79914200       0.52511100
   202  H          0.96711900       0.79914200       0.97488900
   203  H          0.53288100       0.29914200       0.52511100
   204  H          0.46711900       0.29914200       0.97488900
   205  H          0.96711900       0.20085800       0.47488900
   206  H          0.03288100       0.20085800       0.02511100
   207  H          0.46711900       0.70085800       0.47488900
   208  H          0.53288100       0.70085800       0.02511100
