data_ZITDIR
_symmetry_space_group_name_H-M    'P1'
_symmetry_Int_Tables_number       1
loop_
_symmetry_equiv_pos_site_id
_symmetry_equiv_pos_as_xyz
1 x,y,z
_cell_length_a                   10.499118
_cell_length_b                   11.492418
_cell_length_c                   12.0792
_cell_angle_alpha                70.83619
_cell_angle_beta                 80.962
_cell_angle_gamma                80.18819
loop_
_atom_site_label
_atom_site_type_symbol
_atom_site_fract_x
_atom_site_fract_y
_atom_site_fract_z
     1  I          0.75748700       0.88917800       0.00196800
     2  I          0.24251300       0.11082200      -0.00196800
     3  I          0.54336800       0.79017100      -0.00151900
     4  I          0.45663200       0.20982900       0.00151900
     5  I          0.16282800       0.75959900      -0.00197100
     6  I          0.83717200       0.24040100       0.00197100
     7  I          0.31290900       0.53903110       0.01883110
     8  I          0.68709100       0.46096890       0.98116890
     9  I          0.49309100       0.08447110       0.65274130
    10  I          0.50690900       0.91552890       0.34725870
    11  I          0.58038120       0.25242130       0.33766130
    12  I          0.41961880       0.74757870       0.66233870
    13  O          0.19787000       0.51707000       0.65497000
    14  O          0.80213000       0.48293000       0.34503000
    15  O          0.91151000       0.84189000       0.55741100
    16  O          0.08849000       0.15811000       0.44258900
    17  O          0.25447000       0.63288000       0.43967000
    18  O          0.74553000       0.36712000       0.56033000
    19  O          0.95602000       0.60948000       0.73289000
    20  O          0.04398000       0.39052000       0.26711000
    21  O          0.04601100       0.80209000       0.35139000
    22  O          0.95398900       0.19791000       0.64861000
    23  C          0.31601000       0.51481200       0.47611100
    24  C          0.68399000       0.48518800       0.52388900
    25  C          0.28529000       0.44941200       0.59541100
    26  C          0.71471000       0.55058800       0.40458900
    27  C          0.81808600       0.79451600       0.65351900
    28  C          0.18191400       0.20548400       0.34648100
    29  H          0.76120000       0.86270000       0.67270000
    30  H          0.23880000       0.13730000       0.32730000
    31  H          0.76540000       0.74520000       0.63230000
    32  H          0.23460000       0.25480000       0.36770000
    33  C          0.25451300       0.69341500       0.31611300
    34  C          0.74548700       0.30658500       0.68388700
    35  H          0.21660000       0.64590000       0.27940000
    36  H          0.78340000       0.35410000       0.72060000
    37  H          0.34230000       0.70460000       0.27870000
    38  H          0.65770000       0.29540000       0.72130000
    39  C          0.86080000       0.89221700       0.45020000
    40  C          0.13920000       0.10778300       0.54980000
    41  H          0.80450000       0.96840000       0.44920000
    42  H          0.19550000       0.03160000       0.55080000
    43  H          0.81010000       0.83460000       0.43980000
    44  H          0.18990000       0.16540000       0.56020000
    45  C          0.34011000       0.32941200       0.64221100
    46  C          0.65989000       0.67058800       0.35778900
    47  H          0.32010000       0.28690000       0.72150000
    48  H          0.67990000       0.71310000       0.27850000
    49  C          0.45541100       0.33301500       0.45421400
    50  C          0.54458900       0.66698500       0.54578600
    51  C          0.14061200       0.45451300       0.77071100
    52  C          0.85938800       0.54548700       0.22928900
    53  H          0.20680000       0.41710000       0.82410000
    54  H          0.79320000       0.58290000       0.17590000
    55  H          0.09270000       0.39020000       0.76880000
    56  H          0.90730000       0.60980000       0.23120000
    57  C          0.39811200       0.45351300       0.40781200
    58  C          0.60188800       0.54648700       0.59218800
    59  H          0.41590000       0.49420000       0.32780000
    60  H          0.58410000       0.50580000       0.67220000
    61  C          0.95980000       0.91741600       0.35751800
    62  C          0.04020000       0.08258400       0.64248200
    63  H          0.01090000       0.97510000       0.36770000
    64  H          0.98910000       0.02490000       0.63230000
    65  H          0.92140000       0.95640000       0.28390000
    66  H          0.07860000       0.04360000       0.71610000
    67  C          0.88268400       0.72051400       0.75211600
    68  C          0.11731600       0.27948600       0.24788400
    69  H          0.81920000       0.69760000       0.82050000
    70  H          0.18080000       0.30240000       0.17950000
    71  H          0.94100000       0.76840000       0.76840000
    72  H          0.05900000       0.23160000       0.23160000
    73  C          0.05101400       0.55441300       0.80821200
    74  C          0.94898600       0.44558700       0.19178800
    75  H          0.00980000       0.51900000       0.88730000
    76  H          0.99020000       0.48100000       0.11270000
    77  H          0.10110000       0.61720000       0.81000000
    78  H          0.89890000       0.38280000       0.19000000
    79  C          0.42651000       0.27091200       0.57001300
    80  C          0.57349000       0.72908800       0.42998700
    81  C          0.17020000       0.82221600       0.30621400
    82  C          0.82980000       0.17778400       0.69378600
    83  H          0.20400000       0.86530000       0.34960000
    84  H          0.79600000       0.13470000       0.65040000
    85  H          0.17160000       0.87330000       0.22430000
    86  H          0.82840000       0.12670000       0.77570000
    87  Cl         0.00000000      -0.00000000      -0.00000000
    88  O          0.96483000       0.60147000       0.51438000
    89  O          0.03517000       0.39853000       0.48562000
