data_ZITYOU
_symmetry_space_group_name_H-M    'P1'
_symmetry_Int_Tables_number       1
loop_
_symmetry_equiv_pos_site_id
_symmetry_equiv_pos_as_xyz
1 x,y,z
_cell_length_a                   9.52413
_cell_length_b                   10.40516
_cell_length_c                   17.87758
_cell_angle_alpha                77.9764
_cell_angle_beta                 78.1303
_cell_angle_gamma                72.0364
loop_
_atom_site_label
_atom_site_type_symbol
_atom_site_fract_x
_atom_site_fract_y
_atom_site_fract_z
     1  P          0.06210500       0.30317500       0.29289300
     2  P          0.93789500       0.69682500       0.70710700
     3  O          0.03891150       0.16551130       0.33285700
     4  O          0.96108850       0.83448870       0.66714300
     5  O          0.45743150       0.32975130       0.65197300
     6  O          0.54256850       0.67024870       0.34802700
     7  P          0.43143500       0.19536500       0.69498800
     8  P          0.56856500       0.80463500       0.30501200
     9  O          0.57955150       0.07717140       0.68978200
    10  O          0.42044850       0.92282860       0.31021800
    11  O          0.91001850       0.41604140       0.29830800
    12  O          0.08998150       0.58395860       0.70169200
    13  O          0.31683150       0.15419150       0.66581200
    14  O          0.68316850       0.84580850       0.33418800
    15  O          0.17061150       0.34523150       0.32558800
    16  O          0.82938850       0.65476850       0.67441200
    17  C          0.37212000       0.20979190       0.79572900
    18  C          0.62788000       0.79020810       0.20427100
    19  C          0.12442000       0.29251190       0.19183100
    20  C          0.87558000       0.70748810       0.80816900
    21  C          0.41932000       0.16873000       0.92695890
    22  C          0.58068000       0.83127000       0.07304110
    23  H          0.48540900       0.12889400       0.96244900
    24  H          0.51459100       0.87110600       0.03755100
    25  C          0.02492000       0.33002000       0.13920110
    26  C          0.97508000       0.66998000       0.86079890
    27  H          0.92359700       0.36635800       0.15571200
    28  H          0.07640300       0.63364200       0.84428800
    29  C          0.27582000       0.24299190       0.95235900
    30  C          0.72418000       0.75700810       0.04764100
    31  C          0.27392000       0.23943000       0.16499120
    32  C          0.72608000       0.76057000       0.83500880
    33  H          0.34293500       0.21357600       0.19913300
    34  H          0.65706500       0.78642400       0.80086700
    35  C          0.22412000       0.26105190       0.03486100
    36  C          0.77588000       0.73894810       0.96513900
    37  C          0.18172000       0.30183000       0.89698880
    38  C          0.81828000       0.69817000       0.10301120
    39  H          0.08473500       0.35324600       0.91196000
    40  H          0.91526500       0.64675400       0.08804000
    41  C          0.07432000       0.31403000       0.06242120
    42  C          0.92568000       0.68597000       0.93757880
    43  H          0.00513300       0.33942300       0.02837300
    44  H         -0.00513300       0.66057700       0.97162700
    45  C          0.22892000       0.28563000       0.82013880
    46  C          0.77108000       0.71437000       0.17986120
    47  H          0.16329100       0.32628500       0.78444600
    48  H          0.83670900       0.67371500       0.21555400
    49  C          0.32262000       0.22403000       0.08801120
    50  C          0.67738000       0.77597000       0.91198880
    51  H          0.42398400       0.18788400       0.07155400
    52  H          0.57601600       0.81211600       0.92844600
    53  C          0.46732000       0.15173000       0.85020880
    54  C          0.53268000       0.84827000       0.14979120
    55  H          0.56449200       0.10084300       0.83508700
    56  H          0.43550800       0.89915700       0.16491300
    57  H          0.82580000       0.38330000       0.30661600
    58  H          0.17420000       0.61670000       0.69338400
    59  H          0.66120000       0.11130000       0.68778300
    60  H          0.33880000       0.88870000       0.31221700
    61  P          0.05896500       0.85971500       0.28337300
    62  P          0.94103500       0.14028500       0.71662700
    63  P          0.45845500       0.63126500       0.70636700
    64  P          0.54154500       0.36873500       0.29363300
    65  O          0.33039140       0.66001150       0.66359300
    66  O          0.66960860       0.33998850       0.33640700
    67  O          0.96637850       0.75933150       0.32635800
    68  O          0.03362150       0.24066850       0.67364200
    69  O          0.55527150       0.48039140       0.71255200
    70  O          0.44472850       0.51960860       0.28744800
    71  O          0.95744850       0.00666140       0.27731800
    72  O          0.04255150      -0.00666140       0.72268200
    73  O          0.18759140       0.83536140       0.32569700
    74  O          0.81240860       0.16463860       0.67430300
    75  C          0.39532000       0.66672000       0.80343900
    76  C          0.60468000       0.33328000       0.19656100
    77  O          0.55861150       0.72491150       0.66559200
    78  O          0.44138850       0.27508850       0.33440800
    79  C          0.12182000       0.82192000       0.18663100
    80  C          0.87818000       0.17808000       0.81336900
    81  C          0.34652000       0.59402000       0.94058890
    82  C          0.65348000       0.40598000       0.05941110
    83  H          0.35102900       0.52291600       0.98213000
    84  H          0.64897100       0.47708400       0.01787000
    85  C          0.17392000       0.68752000       0.17335110
    86  C          0.82608000       0.31248000       0.82664890
    87  H          0.17450600       0.61660500       0.21481900
    88  H          0.82549400       0.38339500       0.78518100
    89  C          0.28472000       0.72842000       0.95483900
    90  C          0.71528000       0.27158000       0.04516100
    91  C          0.40102000       0.56312000       0.86668890
    92  C          0.59898000       0.43688000       0.13331110
    93  H          0.44184100       0.47233800       0.85931300
    94  H          0.55815900       0.52766200       0.14068700
    95  C          0.33372000       0.80172000       0.81620890
    96  C          0.66628000       0.19828000       0.18379110
    97  H          0.32911600       0.87243400       0.77450500
    98  H          0.67088400       0.12756600       0.22549500
    99  C          0.22732000       0.76082000       0.03483110
   100  C          0.77268000       0.23918000       0.96516890
   101  C          0.17413000       0.89482000       0.04966120
   102  C          0.82587000       0.10518000       0.95033880
   103  H          0.17377000       0.96604200       0.00839800
   104  H          0.82623000       0.03395800       0.99160200
   105  C          0.27922000       0.83142000       0.89047890
   106  C          0.72078000       0.16858000       0.10952110
   107  H          0.23796500       0.92220600       0.89769900
   108  H          0.76203500       0.07779400       0.10230100
   109  C          0.12163000       0.92572000       0.12368120
   110  C          0.87837000       0.07428000       0.87631880
   111  H          0.08591100       0.01660100       0.13134500
   112  H          0.91408900       0.98339900       0.86865500
   113  C          0.22512000       0.65782000       0.09881110
   114  C          0.77488000       0.34218000       0.90118890
   115  H          0.25896000       0.56688000       0.09118800
   116  H          0.74104000       0.43312000       0.90881200
   117  H          0.65771400       0.70030000       0.67458500
   118  H          0.34228600       0.29970000       0.32541500
   119  H          0.86388800       0.78930000       0.32271400
   120  H          0.13611200       0.21070000       0.67728600
   121  H          0.99070000       0.07020000       0.29611500
   122  H          0.00930000       0.92980000       0.70388500
   123  H          0.51530000       0.42630000       0.69198500
   124  H          0.48470000       0.57370000       0.30801500
   125  N          0.21922000       0.63400170       0.44806900
   126  N          0.78078000       0.36599830       0.55193100
   127  N          0.29532000       0.47898180       0.53969100
   128  N          0.70468000       0.52101820       0.46030900
   129  C          0.18313000       0.52162000       0.44462120
   130  C          0.81687000       0.47838000       0.55537880
   131  H          0.13313900       0.51392900       0.40693900
   132  H          0.86686100       0.48607100       0.59306100
   133  N          0.22673000       0.42402000       0.50067120
   134  N          0.77327000       0.57598000       0.49932880
   135  C          0.29063000       0.60362000       0.50793130
   136  C          0.70937000       0.39638000       0.49206870
   137  H          0.33072700       0.66170900       0.52455100
   138  H          0.66927300       0.33829100       0.47544900
   139  H          0.21230000       0.71191800       0.41101200
   140  H          0.78770000       0.28808200       0.58898800
   141  H          0.34030000       0.42920000       0.58301000
   142  H          0.65970000       0.57080000       0.41699000
   143  N          0.71632000       0.94462000       0.45194100
   144  N          0.28368000       0.05538000       0.54805900
   145  N          0.81112000       0.95086190       0.54755100
   146  N          0.18888000       0.04913810       0.45244900
   147  N          0.79083000       0.07642000       0.50627120
   148  N          0.20917000       0.92358000       0.49372880
   149  C          0.76973000       0.87242000       0.51501130
   150  C          0.23027000       0.12758000       0.48498870
   151  H          0.77622400       0.78049500       0.53285200
   152  H          0.22377600       0.21950500       0.46714800
   153  C          0.73394000       0.06793000       0.44832140
   154  C          0.26606000       0.93207000       0.55167860
   155  H          0.70805900       0.14000300       0.40854200
   156  H          0.29194100       0.85999700       0.59145800
   157  H          0.85730000       0.92530000       0.59211000
   158  H          0.14270000       0.07470000       0.40789000
   159  H          0.68230000       0.91330000       0.41561300
   160  H          0.31770000       0.08670000       0.58438700
