data_ZIVDEN
_symmetry_space_group_name_H-M    'P1'
_symmetry_Int_Tables_number       1
loop_
_symmetry_equiv_pos_site_id
_symmetry_equiv_pos_as_xyz
1 x,y,z
_cell_length_a                   8.8182
_cell_length_b                   10.8751
_cell_length_c                   12.0232
_cell_angle_alpha                110.451
_cell_angle_beta                 92.532
_cell_angle_gamma                107.301
loop_
_atom_site_label
_atom_site_type_symbol
_atom_site_fract_x
_atom_site_fract_y
_atom_site_fract_z
     1  C          0.15068000       0.79597000       0.01046000
     2  C          0.10128000       0.64857000       0.96896000
     3  C          0.10419000       0.57618000       0.04656000
     4  C          0.05001000       0.43609000       0.00568000
     5  C         -0.01849000       0.35648000       0.88657000
     6  C         -0.01999000       0.41757000       0.80636000
     7  C          0.04588000       0.56597000       0.84396000
     8  C          0.05168000       0.62887000       0.75716000
     9  C          0.09518000       0.77527000       0.79906000
    10  C          0.09279000       0.84628000       0.72016000
    11  C          0.12131000      -0.01322000       0.76167000
    12  C          0.14999000       0.06298000       0.88517000
    13  C          0.16169000       0.00407000       0.96616000
    14  C          0.13538000       0.85667000       0.92596000
    15  C          0.01868000       0.53908000       0.62356000
    16  C          0.14229000       0.46238000       0.58346000
    17  C          0.21619000       0.88338000       0.14046000
    18  C          0.39161000       0.97541000       0.16977000
    19  C          0.49559000       0.91169000       0.09416000
    20  N          0.67016000      -0.00244000       0.13355000
    21  C          0.71939000       0.13968000       0.12507000
    22  C          0.64741000       0.14408000       0.01297000
    23  O          0.69266000       0.06225000       0.91014000
    24  C          0.59921000       0.03928000       0.80136000
    25  C          0.64891100       0.94179000       0.69917000
    26  O          0.60036000       0.81055000       0.70964000
    27  C          0.64541000       0.71358000       0.61877000
    28  C          0.60299000       0.57458000       0.64027000
    29  C          0.31088000       0.55417000       0.64346000
    30  N          0.42937000       0.48336000       0.58925000
    31  C          0.40401000       0.34128000       0.59546000
    32  C          0.37751200       0.33119000       0.71218000
    33  O          0.50507000       0.42295000       0.80125000
    34  C          0.47691100       0.43528000       0.91908000
    35  C          0.61671100       0.54309000       0.00568000
    36  O          0.62487000       0.67635000       0.00435000
    37  C          0.75821000       0.78898000       0.08727000
    38  C          0.77719000       0.92138000       0.06998000
    39  H          0.14617200       0.63896200       0.13435300
    40  H          0.06067400       0.39726100       0.05775200
    41  H          0.95273900       0.26935300       0.86314500
    42  H          0.93523900       0.35215300       0.71844500
    43  H          0.06035800       0.79194900       0.63174200
    44  H          0.11097700       0.03166700       0.69675500
    45  H          0.15797200       0.14536000       0.91385400
    46  H          0.18824500       0.06333800       0.05433200
    47  H          0.91593100       0.47385800       0.60154900
    48  H          0.02386000       0.59725300       0.57604400
    49  H          0.12516700       0.37295800       0.60434800
    50  H          0.12065900       0.43475000       0.49394200
    51  H          0.33286300       0.65665100       0.64234400
    52  H          0.31415200       0.57724500       0.72793800
    53  H          0.15636200       0.94335300       0.16454600
    54  H          0.20236000       0.83165000       0.19424300
    55  H          0.38510000       0.06648300       0.15777200
    56  H          0.44675900       0.01015000       0.26514300
    57  H          0.46467400       0.81786100       0.12225500
    58  H          0.46226800       0.88755800       0.00934900
    59  H          0.69367800       0.20216700       0.19715800
    60  H          0.82807000       0.17915700       0.14494800
    61  H          0.53557400       0.09126300       0.98575500
    62  H          0.70937200       0.24146200       0.02395300
    63  H          0.48986100      -0.00645000       0.79704400
    64  H          0.63707700       0.12986400       0.77365800
    65  H          0.59297000       0.94225700       0.61375000
    66  H          0.78356300       0.97545400       0.70474700
    67  H          0.57886900       0.69435800       0.52405300
    68  H          0.77546100       0.74315100       0.62264400
    69  H          0.67906500       0.51355400       0.59944800
    70  H          0.62257200       0.59916000       0.73675300
    71  H          0.31087500       0.28206300       0.52625500
    72  H          0.51068100       0.33006900       0.57195800
    73  H          0.29110000       0.37968400       0.75567600
    74  H          0.38347500       0.23856300       0.71855500
    75  H          0.38969900       0.46838100       0.93647300
    76  H          0.44957100       0.34676100       0.93355100
    77  H          0.61037500       0.54976200       0.10105400
    78  H          0.73287500       0.52006200       0.98195500
    79  H          0.74318300       0.81197100       0.18536100
    80  H          0.87527500       0.76876500       0.07765300
    81  H          0.89937300       0.97786200       0.11515100
    82  H          0.74125700       0.89314700       0.96904100
    83  Cl         0.35303000       0.35523000       0.25592000
    84  O          0.38121800       0.27671200       0.31828000
    85  O          0.40649000       0.48247000       0.34396000
    86  O          0.19051000       0.31289000       0.21878000
    87  O          0.43291000       0.32817000       0.16456000
    88  Cl         0.76643000       0.11832000       0.46332000
    89  O          0.89068000       0.13047000       0.54456000
    90  O          0.68488000       0.97686000       0.38286000
    91  O          0.82661400       0.18561200       0.39269000
    92  O          0.65911000       0.16909000       0.53139000
    93  C          0.96741200       0.79909000       0.39787000
    94  C          0.10491600       0.91701300       0.43719000
    95  C          0.26051300       0.91671000       0.44978000
    96  C          0.27321200       0.78491100       0.41048000
    97  C          0.13831100       0.66149000       0.37107000
    98  C         -0.01058700       0.66921200       0.36117000
    99  C          0.85041400       0.54951200       0.32028000
   100  H          0.83689300       0.78877800       0.37896900
   101  H          0.08579800      -0.00101700       0.46287100
   102  H          0.36338500       0.01447100       0.47966300
   103  H          0.39207400       0.76666100       0.40255200
   104  H          0.11879100       0.56537900       0.32166500
   105  H          0.80119300       0.52387900       0.36877000
   106  H          0.79389300       0.57857900       0.28976600
   107  H          0.88639200       0.48447600       0.27246700
