data_ZIWFIY
_symmetry_space_group_name_H-M    'P1'
_symmetry_Int_Tables_number       1
loop_
_symmetry_equiv_pos_site_id
_symmetry_equiv_pos_as_xyz
1 x,y,z
_cell_length_a                   7.78932
_cell_length_b                   8.18752
_cell_length_c                   10.22532
_cell_angle_alpha                108.7852
_cell_angle_beta                 94.3502
_cell_angle_gamma                110.7592
loop_
_atom_site_label
_atom_site_type_symbol
_atom_site_fract_x
_atom_site_fract_y
_atom_site_fract_z
     1  O          0.73860100       0.68793100       0.96266800
     2  O          0.26139900       0.31206900       0.03733200
     3  C         -0.02107870       0.94124140       0.92670110
     4  C          0.02107870       0.05875860       0.07329890
     5  C          0.77332140       0.80056140       0.10500110
     6  C          0.22667860       0.19943860       0.89499890
     7  C          0.91529140      -0.01373860       0.16247110
     8  C          0.08470860       0.01373860       0.83752890
     9  C          0.94822150       0.09779150       0.30721110
    10  C          0.05177850       0.90220850       0.69278890
    11  C          0.84203140       0.76100140       0.87501110
    12  C          0.15796860       0.23899860       0.12498890
    13  C          0.66603150       0.72869150       0.18880120
    14  C          0.33396850       0.27130850       0.81119880
    15  H          0.57019200       0.60481200       0.15029500
    16  H          0.42980800       0.39518800       0.84970500
    17  C          0.69919160       0.84062170       0.33338130
    18  C          0.30080840       0.15937830       0.66661870
    19  H          0.62462100       0.79008500       0.39152100
    20  H          0.37537900       0.20991500       0.60847900
    21  C          0.83603160       0.02034170       0.39234130
    22  C          0.16396840      -0.02034170       0.60765870
    23  H          0.85533500       0.09245800       0.48997200
    24  H          0.14466500       0.90754200       0.51002800
    25  C          0.80540150       0.64697150       0.73151120
    26  C          0.19459850       0.35302850       0.26848880
    27  H          0.71049600       0.52260800       0.69550000
    28  H          0.28950400       0.47739200       0.30450000
    29  C          0.90784160       0.71664160       0.64363120
    30  C          0.09215840       0.28335840       0.35636880
    31  H          0.88190300       0.63845900       0.54668100
    32  H          0.11809700       0.36154100       0.45331900
    33  O          0.63874110      -0.01203890       0.67979800
    34  O          0.36125890       0.01203890       0.32020200
    35  O          0.85512120       0.27747120       0.78120900
    36  O          0.14487880       0.72252880       0.21879100
    37  O          0.42152130       0.70057120       0.56679900
    38  O          0.57847870       0.29942880       0.43320100
    39  C          0.52792130      -0.00233860       0.93554110
    40  C          0.47207870       0.00233860       0.06445890
    41  C          0.67521140       0.15720140       0.93233110
    42  C          0.32478860       0.84279860       0.06766890
    43  C          0.56565140       0.16634140       0.18748110
    44  C          0.43434860       0.83365860       0.81251890
    45  C          0.73307150       0.15216150       0.79759120
    46  C          0.26692850       0.84783850       0.20240880
    47  C          0.70928150       0.32022140       0.18190120
    48  C          0.29071850       0.67977860       0.81809880
    49  H          0.77152200       0.42969300       0.26528400
    50  H          0.22847800       0.57030700       0.73471600
    51  C          0.76399140       0.31599140       0.05380120
    52  C          0.23600860       0.68400860       0.94619880
    53  H          0.86257100       0.42288000       0.05059400
    54  H          0.13742900       0.57712000       0.94940600
    55  C          0.49107150       0.82937150       0.67775120
    56  C          0.50892850       0.17062850       0.32224880
