data_ZIXYAK
_symmetry_space_group_name_H-M    'P1'
_symmetry_Int_Tables_number       1
loop_
_symmetry_equiv_pos_site_id
_symmetry_equiv_pos_as_xyz
1 x,y,z
_cell_length_a                   10.466418
_cell_length_b                   11.8772
_cell_length_c                   12.2812
_cell_angle_alpha                109.0543
_cell_angle_beta                 103.1443
_cell_angle_gamma                111.8033
loop_
_atom_site_label
_atom_site_type_symbol
_atom_site_fract_x
_atom_site_fract_y
_atom_site_fract_z
     1  I          0.21133200       0.37149200       0.13068200
     2  I          0.78866800       0.62850800       0.86931800
     3  F          0.87117000       0.23092000       0.93667000
     4  F          0.12883000       0.76908000       0.06333000
     5  F          0.28702000       0.67392000       0.16922000
     6  F          0.71298000       0.32608000       0.83078000
     7  C          0.93646000       0.36453000       0.97017000
     8  C          0.06354000       0.63547000       0.02983000
     9  C          0.08294000       0.44983000       0.05783000
    10  C          0.91706000       0.55017000       0.94217000
    11  C          0.14494000       0.58623000       0.08633000
    12  C          0.85506000       0.41377000       0.91367000
    13  I          0.14533200       0.34185200       0.76356200
    14  I          0.85466800       0.65814800       0.23643800
    15  F          0.35453000       0.22602000       0.85992000
    16  F          0.64547000       0.77398000       0.14008000
    17  F          0.37912000       0.65422000       0.95412000
    18  F          0.62088000       0.34578000       0.04588000
    19  C          0.42603000       0.36203000       0.92733000
    20  C          0.57397000       0.63797000       0.07267000
    21  C          0.35803000       0.43533000       0.90003000
    22  C          0.64197000       0.56467000       0.09997000
    23  C          0.43703000       0.57633000       0.97513000
    24  C          0.56297000       0.42367000       0.02487000
    25  I          0.19505300       0.14114200       0.34142200
    26  I          0.80494700       0.85885800       0.65857800
    27  F          0.85658000       0.04192000       0.31582000
    28  F          0.14342000       0.95808000       0.68418000
    29  F          0.29262000       0.06403000       0.56262000
    30  F          0.70738000       0.93597000       0.43738000
    31  C          0.92987000       0.02313000       0.40733000
    32  C          0.07013000       0.97687000       0.59267000
    33  C          0.07913000       0.05653000       0.43563000
    34  C          0.92087000       0.94347000       0.56437000
    35  C          0.14863000       0.03223000       0.53023000
    36  C          0.85137000       0.96777000       0.46977000
    37  O          0.86123000       0.26973000       0.57623000
    38  O          0.13877000       0.73027000       0.42377000
    39  O         -0.00117000       0.34953000       0.45473000
    40  O          0.00117000       0.65047000       0.54527000
    41  H         -0.01230000       0.33560000       0.51360000
    42  H          0.01230000       0.66440000       0.48640000
    43  N          0.40053000       0.25803000       0.20183000
    44  N          0.59947000       0.74197000       0.79817000
    45  N          0.37593000       0.12933000       0.13803000
    46  N          0.62407000       0.87067000       0.86197000
    47  C          0.59984000       0.18425000       0.51584000
    48  C          0.40016000       0.81575000       0.48416000
    49  H          0.61970000       0.16430000       0.58730000
    50  H          0.38030000       0.83570000       0.41270000
    51  H          0.52420000       0.10010000       0.44010000
    52  H          0.47580000       0.89990000       0.55990000
    53  H          0.56280000       0.25010000       0.53260000
    54  H          0.43720000       0.74990000       0.46740000
    55  C          0.74174000       0.24274000       0.49643000
    56  C          0.25826000       0.75726000       0.50357000
    57  C          0.73743000       0.26513000       0.38783000
    58  C          0.26257000       0.73487000       0.61217000
    59  C          0.86973000       0.31803000       0.37183000
    60  C          0.13027000       0.68197000       0.62817000
    61  C          0.88314000       0.33904000       0.26154000
    62  C          0.11686000       0.66096000       0.73846000
    63  H          0.94830000       0.43580000       0.28890000
    64  H          0.05170000       0.56420000       0.71110000
    65  H          0.78360000       0.30940000       0.20170000
    66  H          0.21640000       0.69060000       0.79830000
    67  H          0.92620000       0.28570000       0.22110000
    68  H          0.07380000       0.71430000       0.77890000
    69  C          0.60084000       0.46663000       0.39243000
    70  C          0.39916000       0.53337000       0.60757000
    71  H          0.54030000       0.50610000       0.36500000
    72  H          0.45970000       0.49390000       0.63500000
    73  H          0.70310000       0.51770000       0.39970000
    74  H          0.29690000       0.48230000       0.60030000
    75  H          0.60340000       0.47140000       0.47410000
    76  H          0.39660000       0.52860000       0.52590000
    77  C          0.53323000       0.32133000       0.29843000
    78  C          0.46677000       0.67867000       0.70157000
    79  C          0.59373000       0.23293000       0.29583000
    80  C          0.40627000       0.76707000       0.70417000
    81  C          0.48813000       0.11013000       0.19163000
    82  C          0.51187000       0.88987000       0.80837000
    83  C          0.48924000       0.97737000       0.14594000
    84  C          0.51076000       0.02263000       0.85406000
    85  H          0.41160000       0.91200000       0.15890000
    86  H          0.58840000       0.08800000       0.84110000
    87  H          0.58760000      -0.00880000       0.19270000
    88  H          0.41240000       0.00880000       0.80730000
    89  H          0.46930000       0.94200000       0.05630000
    90  H          0.53070000       0.05800000       0.94370000
    91  C          0.24084000       0.03494000       0.02453000
    92  C          0.75916000       0.96506000       0.97547000
    93  H          0.25050000       0.95650000       0.97700000
    94  H          0.74950000       0.04350000       0.02300000
    95  H          0.22610000       0.08050000       0.97300000
    96  H          0.77390000       0.91950000       0.02700000
    97  H          0.15440000       0.00370000       0.04690000
    98  H          0.84560000      -0.00370000       0.95310000
