data_ZIYFOF
_symmetry_space_group_name_H-M    'P1'
_symmetry_Int_Tables_number       1
loop_
_symmetry_equiv_pos_site_id
_symmetry_equiv_pos_as_xyz
1 x,y,z
_cell_length_a                   15.870514
_cell_length_b                   28.5733
_cell_length_c                   4.24154
_cell_angle_alpha                90.0
_cell_angle_beta                 90.0
_cell_angle_gamma                90.0
loop_
_atom_site_label
_atom_site_type_symbol
_atom_site_fract_x
_atom_site_fract_y
_atom_site_fract_z
     1  O          0.48294900       0.58259500       0.36905000
     2  O          0.51705100       0.41740500       0.86905000
     3  O          0.01705100       0.08259500       0.86905000
     4  O          0.98294900       0.91740500       0.36905000
     5  O          0.56620900       0.63309400       0.11525000
     6  O          0.43379100       0.36690600       0.61525000
     7  O          0.93379100       0.13309400       0.61525000
     8  O          0.06620900       0.86690600       0.11525000
     9  H          0.59410000       0.60870000       0.07760000
    10  H          0.40590000       0.39130000       0.57760000
    11  H          0.90590000       0.10870000       0.57760000
    12  H          0.09410000       0.89130000       0.07760000
    13  O          0.23843900       0.68733400       0.72524000
    14  O          0.76156100       0.31266600       0.22524000
    15  O          0.26156100       0.18733400       0.22524000
    16  O          0.73843900       0.81266600       0.72524000
    17  O          0.27571100       0.77220500       0.49424000
    18  O          0.72428900       0.22779500      -0.00576000
    19  O          0.22428900       0.27220500      -0.00576000
    20  O          0.77571100       0.72779500       0.49424000
    21  O          0.41241900       0.78711500       0.14814000
    22  O          0.58758100       0.21288500       0.64814000
    23  O          0.08758100       0.28711500       0.64814000
    24  O          0.91241900       0.71288500       0.14814000
    25  C          0.49904870       0.62227300       0.27697000
    26  C          0.50095130       0.37772700       0.77697000
    27  C          0.00095130       0.12227300       0.77697000
    28  C         -0.00095130       0.87772700       0.27697000
    29  C          0.44137870       0.66244300       0.33866000
    30  C          0.55862130       0.33755700       0.83866000
    31  C          0.05862130       0.16244300       0.83866000
    32  C          0.94137870       0.83755700       0.33866000
    33  C          0.36848860       0.65448300       0.51356000
    34  C          0.63151140       0.34551700       0.01356000
    35  C          0.13151140       0.15448300       0.01356000
    36  C          0.86848860       0.84551700       0.51356000
    37  H          0.35740000       0.62440000       0.59900000
    38  H          0.64260000       0.37560000       0.09900000
    39  H          0.14260000       0.12440000       0.09900000
    40  H          0.85740000       0.87560000       0.59900000
    41  C          0.31209860       0.69101200       0.56176000
    42  C          0.68790140       0.30898800       0.06176000
    43  C          0.18790140       0.19101200       0.06176000
    44  C          0.81209860       0.80898800       0.56176000
    45  C          0.32918860       0.73525300       0.43616000
    46  C          0.67081140       0.26474700       0.93616000
    47  C          0.17081140       0.23525300       0.93616000
    48  C          0.82918860       0.76474700       0.43616000
    49  C          0.40222860       0.74253300       0.26176000
    50  C          0.59777140       0.25746700       0.76176000
    51  C          0.09777140       0.24253300       0.76176000
    52  C          0.90222860       0.75746700       0.26176000
    53  C          0.45907860       0.70616300       0.21135000
    54  C          0.54092140       0.29383700       0.71135000
    55  C          0.04092140       0.20616300       0.71135000
    56  C          0.95907860       0.79383700       0.21135000
    57  H          0.50900000       0.71120000       0.09230000
    58  H          0.49100000       0.28880000       0.59230000
    59  H          0.99100000       0.21120000       0.59230000
    60  H          0.00900000       0.78880000       0.09230000
    61  C          0.21801850       0.64258200       0.85396000
    62  C          0.78198150       0.35741800       0.35396000
    63  C          0.28198150       0.14258200       0.35396000
    64  C          0.71801850       0.85741800       0.85396000
    65  H          0.21140000       0.61990000       0.68240000
    66  H          0.78860000       0.38010000       0.18240000
    67  H          0.28860000       0.11990000       0.18240000
    68  H          0.71140000       0.88010000       0.68240000
    69  H          0.16530000       0.64480000      -0.02700000
    70  H          0.83470000       0.35520000       0.47300000
    71  H          0.33470000       0.14480000       0.47300000
    72  H          0.66530000       0.85520000      -0.02700000
    73  H          0.26340000       0.63240000      -0.00540000
    74  H          0.73660000       0.36760000       0.49460000
    75  H          0.23660000       0.13240000       0.49460000
    76  H          0.76340000       0.86760000      -0.00540000
    77  C          0.20303850       0.77285100       0.29408000
    78  C          0.79696150       0.22714900       0.79408000
    79  C          0.29696150       0.27285100       0.79408000
    80  C          0.70303850       0.72714900       0.29408000
    81  H          0.22100000       0.77310000       0.07290000
    82  H          0.77900000       0.22690000       0.57290000
    83  H          0.27900000       0.27310000       0.57290000
    84  H          0.72100000       0.72690000       0.07290000
    85  H          0.16970000       0.80100000       0.33780000
    86  H          0.83030000       0.19900000       0.83780000
    87  H          0.33030000       0.30100000       0.83780000
    88  H          0.66970000       0.69900000       0.33780000
    89  H          0.16870000       0.74500000       0.33430000
    90  H          0.83130000       0.25500000       0.83430000
    91  H          0.33130000       0.24500000       0.83430000
    92  H          0.66870000       0.75500000       0.33430000
    93  C          0.48642850       0.79683200      -0.02927000
    94  C          0.51357150       0.20316800       0.47073000
    95  C          0.01357150       0.29683200       0.47073000
    96  C          0.98642850       0.70316800      -0.02927000
    97  H          0.48870000       0.77610000       0.78690000
    98  H          0.51130000       0.22390000       0.28690000
    99  H          0.01130000       0.27610000       0.28690000
   100  H          0.98870000       0.72390000       0.78690000
   101  H          0.53620000       0.79160000       0.10310000
   102  H          0.46380000       0.20840000       0.60310000
   103  H          0.96380000       0.29160000       0.60310000
   104  H          0.03620000       0.70840000       0.10310000
   105  H          0.48540000       0.82950000       0.90040000
   106  H          0.51460000       0.17050000       0.40040000
   107  H          0.01460000       0.32950000       0.40040000
   108  H          0.98540000       0.67050000       0.90040000
   109  S          0.71539700       0.48026800       0.79078840
   110  S          0.28460300       0.51973200       0.29078840
   111  S          0.78460300       0.98026800       0.29078840
   112  S          0.21539700       0.01973200       0.79078840
   113  F          0.03005800       0.61217500       0.50056000
   114  F          0.96994200       0.38782500       0.00056000
   115  F          0.46994200       0.11217500       0.00056000
   116  F          0.53005800       0.88782500       0.50056000
   117  F          0.07749800       0.57476500       0.09897000
   118  F          0.92250200       0.42523500       0.59897000
   119  F          0.42250200       0.07476500       0.59897000
   120  F          0.57749800       0.92523500       0.09897000
   121  F          0.02842800       0.53708500       0.49716000
   122  F          0.97157200       0.46291500      -0.00284000
   123  F          0.47157200       0.03708500      -0.00284000
   124  F          0.52842800       0.96291500       0.49716000
   125  O          0.94249900       0.57549500       0.16936000
   126  O          0.05750100       0.42450500       0.66936000
   127  O          0.55750100       0.07549500       0.66936000
   128  O          0.44249900       0.92450500       0.16936000
   129  N          0.57981880       0.50226300       0.14785000
   130  N          0.42018120       0.49773700       0.64785000
   131  N          0.92018120       0.00226300       0.64785000
   132  N          0.07981880      -0.00226300       0.14785000
   133  H          0.54520000       0.52180000       0.24190000
   134  H          0.45480000       0.47820000       0.74190000
   135  H          0.95480000       0.02180000       0.74190000
   136  H          0.04520000       0.97820000       0.24190000
   137  H          0.57210000       0.47190000       0.16620000
   138  H          0.42790000       0.52810000       0.66620000
   139  H          0.92790000       0.97190000       0.66620000
   140  H          0.07210000       0.02810000       0.16620000
   141  N          0.65990890       0.56307400       0.93785000
   142  N          0.34009110       0.43692600       0.43785000
   143  N          0.84009110       0.06307400       0.43785000
   144  N          0.15990890       0.93692600       0.93785000
   145  C          0.64401860       0.51863300      -0.02286000
   146  C          0.35598140       0.48136700       0.47714000
   147  C          0.85598140       0.01863300       0.47714000
   148  C          0.14401860       0.98136700      -0.02286000
   149  C          0.73086870       0.57001300       0.75054000
   150  C          0.26913130       0.42998700       0.25054000
   151  C          0.76913130       0.07001300       0.25054000
   152  C          0.23086870       0.92998700       0.75054000
   153  C          0.76373860       0.61329200       0.66184000
   154  C          0.23626140       0.38670800       0.16184000
   155  C          0.73626140       0.11329200       0.16184000
   156  C          0.26373860       0.88670800       0.66184000
   157  H          0.73790000       0.64140000       0.73170000
   158  H          0.26210000       0.35860000       0.23170000
   159  H          0.76210000       0.14140000       0.23170000
   160  H          0.23790000       0.85860000       0.73170000
   161  C          0.83439860       0.61486200       0.47104000
   162  C          0.16560140       0.38513800      -0.02896000
   163  C          0.66560140       0.11486200      -0.02896000
   164  C          0.33439860       0.88513800       0.47104000
   165  H          0.85750000       0.64410000       0.40810000
   166  H          0.14250000       0.35590000       0.90810000
   167  H          0.64250000       0.14410000       0.90810000
   168  H          0.35750000       0.85590000       0.40810000
   169  C          0.87106860       0.57344200       0.37295000
   170  C          0.12893140       0.42655800       0.87295000
   171  C          0.62893140       0.07344200       0.87295000
   172  C          0.37106860       0.92655800       0.37295000
   173  C          0.84041860       0.52983300       0.45254000
   174  C          0.15958140       0.47016700       0.95254000
   175  C          0.65958140       0.02983300       0.95254000
   176  C          0.34041860       0.97016700       0.45254000
   177  H          0.86650000       0.50190000       0.37990000
   178  H          0.13350000       0.49810000       0.87990000
   179  H          0.63350000       0.00190000       0.87990000
   180  H          0.36650000      -0.00190000       0.37990000
   181  C          0.76970860       0.52886200       0.64384000
   182  C          0.23029140       0.47113800       0.14384000
   183  C          0.73029140       0.02886200       0.14384000
   184  C          0.26970860       0.97113800       0.64384000
   185  C          0.01722140       0.57481300       0.31654000
   186  C          0.98277860       0.42518700       0.81654000
   187  C          0.48277860       0.07481300       0.81654000
   188  C          0.51722140       0.92518700       0.31654000
