data_ZIZKOK
_symmetry_space_group_name_H-M    'P1'
_symmetry_Int_Tables_number       1
loop_
_symmetry_equiv_pos_site_id
_symmetry_equiv_pos_as_xyz
1 x,y,z
_cell_length_a                   8.99308
_cell_length_b                   9.34798
_cell_length_c                   11.17079
_cell_angle_alpha                77.9457
_cell_angle_beta                 89.3257
_cell_angle_gamma                82.0487
loop_
_atom_site_label
_atom_site_type_symbol
_atom_site_fract_x
_atom_site_fract_y
_atom_site_fract_z
     1  I          0.85441400       0.33482300       0.55773300
     2  I          0.14558600       0.66517700       0.44226700
     3  N          0.18514000       0.96365000       0.63154000
     4  N          0.81486000       0.03635000       0.36846000
     5  H          0.28490000       0.90990000       0.62980000
     6  H          0.71510000       0.09010000       0.37020000
     7  N          0.07684000       0.90274000       0.69794000
     8  N          0.92316000       0.09726000       0.30206000
     9  C          0.95835000       0.00705000       0.68374000
    10  C          0.04165000      -0.00705000       0.31626000
    11  H          0.86390000      -0.00440000       0.72100000
    12  H          0.13610000       0.00440000       0.27900000
    13  C         -0.00805000       0.13545000       0.60634000
    14  C          0.00805000       0.86455000       0.39366000
    15  C          0.13935000       0.10196000       0.57444000
    16  C          0.86065000       0.89804000       0.42556000
    17  H          0.19700000       0.16560000       0.52160000
    18  H          0.80300000       0.83440000       0.47840000
    19  I          0.43052300       0.73728300      -0.00276200
    20  I          0.56947700       0.26271700       0.00276200
    21  N          0.52314000       0.73814000       0.36633000
    22  N          0.47686000       0.26186000       0.63367000
    23  H          0.55650000       0.70850000       0.44350000
    24  H          0.44350000       0.29150000       0.55650000
    25  N          0.47644000       0.88254000       0.32573000
    26  N          0.52356000       0.11746000       0.67427000
    27  H          0.48260000       0.95440000       0.36540000
    28  H          0.51740000       0.04560000       0.63460000
    29  C          0.43675000       0.90825000       0.20804000
    30  C          0.56325000       0.09175000       0.79196000
    31  H          0.40110000       0.00160000       0.15770000
    32  H          0.59890000      -0.00160000       0.84230000
    33  C          0.45685000       0.77325000       0.17224000
    34  C          0.54315000       0.22675000       0.82776000
    35  C          0.51065000       0.66875000       0.27414000
    36  C          0.48935000       0.33125000       0.72586000
    37  H          0.53460000       0.56560000       0.27820000
    38  H          0.46540000       0.43440000       0.72180000
    39  I          0.14120400       0.15914300       0.93916300
    40  I          0.85879600       0.84085700       0.06083700
    41  N          0.91904000       0.58655000       0.80804000
    42  N          0.08096000       0.41345000       0.19196000
    43  H          0.84570000       0.64970000       0.78060000
    44  H          0.15430000       0.35030000       0.21940000
    45  N          0.06004000       0.62115000       0.80514000
    46  N          0.93996000       0.37885000       0.19486000
    47  H          0.07670000       0.71280000       0.78060000
    48  H          0.92330000       0.28720000       0.21940000
    49  C          0.15335000       0.49685000       0.84794000
    50  C          0.84665000       0.50315000       0.15206000
    51  H          0.25920000       0.48920000       0.85690000
    52  H          0.74080000       0.51080000       0.14310000
    53  C          0.06985000       0.38165000       0.87664000
    54  C          0.93015000       0.61835000       0.12336000
    55  C          0.92215000       0.44486000       0.85025000
    56  C          0.07785000       0.55514000       0.14975000
    57  H          0.83710000       0.39360000       0.86090000
    58  H          0.16290000       0.60640000       0.13910000
    59  S          0.55520100       0.73498100       0.67024800
    60  S          0.44479900       0.26501900       0.32975200
    61  O          0.67703000       0.77193000       0.74073000
    62  O          0.32297000       0.22807000       0.25927000
    63  O          0.44214000       0.67284000       0.75203000
    64  O          0.55786000       0.32716000       0.24797000
    65  O          0.61813000       0.63053000       0.59333000
    66  O          0.38187000       0.36947000       0.40667000
    67  O          0.48563000       0.87333000       0.58763000
    68  O          0.51437000       0.12667000       0.41237000
