data_ZOBBEZ
_symmetry_space_group_name_H-M    'P1'
_symmetry_Int_Tables_number       1
loop_
_symmetry_equiv_pos_site_id
_symmetry_equiv_pos_as_xyz
1 x,y,z
_cell_length_a                   4.83112
_cell_length_b                   12.04574
_cell_length_c                   16.65776
_cell_angle_alpha                91.1282
_cell_angle_beta                 92.9502
_cell_angle_gamma                94.2132
loop_
_atom_site_label
_atom_site_type_symbol
_atom_site_fract_x
_atom_site_fract_y
_atom_site_fract_z
     1  I          0.00367700       0.90437700       0.31846019
     2  I         -0.00367700       0.09562300       0.68153981
     3  I          0.78123900       0.13172300       0.45511200
     4  I          0.21876100       0.86827700       0.54488800
     5  S          0.63573000       0.03250100       0.18459700
     6  S          0.36427000       0.96749900       0.81540300
     7  S          0.45243000       0.20477110       0.29232700
     8  S          0.54757000       0.79522890       0.70767300
     9  S          0.25343000       0.11929100       0.03856700
    10  S          0.74657000       0.88070900       0.96143300
    11  S          0.07283000       0.29612100       0.14334700
    12  S          0.92717000       0.70387900       0.85665300
    13  S          0.91476000       0.17208120       0.89669200
    14  S          0.08524000       0.82791880       0.10330800
    15  S          0.69497000       0.38475110       0.01644800
    16  S          0.30503000       0.61524890       0.98355200
    17  C          0.75791000       0.03234000       0.28583000
    18  C          0.24209000       0.96766000       0.71417000
    19  C          0.67661000       0.11154000       0.33313000
    20  C          0.32339000       0.88846000       0.66687000
    21  C          0.43281000       0.14504000       0.19623000
    22  C          0.56719000       0.85496000       0.80377000
    23  C          0.27191000       0.18224000       0.13383000
    24  C          0.72809000       0.81776000       0.86617000
    25  C          0.00871100       0.20414000      -0.00273000
    26  C         -0.00871100       0.79586000       0.00273000
    27  C          0.92589000       0.28594000       0.04513000
    28  C          0.07411000       0.71406000       0.95487000
    29  C          0.70678500       0.28355000       0.86476000
    30  C          0.29321500       0.71645000       0.13524000
    31  H          0.73830000       0.29770000       0.80870000
    32  H          0.26170000       0.70230000       0.19130000
    33  H          0.51230000       0.25850000       0.86810000
    34  H          0.48770000       0.74150000       0.13190000
    35  C          0.76038500       0.38905000       0.91077000
    36  C          0.23961500       0.61095000       0.08923000
    37  H          0.64670000       0.44350000       0.88620000
    38  H          0.35330000       0.55650000       0.11380000
    39  H          0.95320000       0.41520000       0.90570000
    40  H          0.04680000       0.58480000       0.09430000
    41  F          0.36737000       0.34463000       0.48016190
    42  F          0.63263000       0.65537000       0.51983810
    43  F          0.07697000       0.40633000       0.35481180
    44  F          0.92303000       0.59367000       0.64518820
    45  C          0.71041300       0.52775000       0.28223000
    46  C          0.28958700       0.47225000       0.71777000
    47  C          0.68441100       0.57034000       0.36193000
    48  C          0.31558900       0.42966000       0.63807000
    49  C          0.48781200       0.65155000       0.36483000
    50  C          0.51218800       0.34845000       0.63517000
    51  C          0.83781000       0.53494000       0.42973000
    52  C          0.16219000       0.46506000       0.57027000
    53  C          0.03561100       0.45354000       0.42633000
    54  C          0.96438900       0.54646000       0.57367000
    55  C          0.18431000       0.42194000       0.49133000
    56  C          0.81569000       0.57806000       0.50867000
    57  N          0.71921600       0.49846000       0.21724000
    58  N          0.28078400       0.50154000       0.78276000
    59  N          0.32791200       0.71614000       0.36263000
    60  N          0.67208800       0.28386000       0.63737000
