data_ZOBHAZ
_symmetry_space_group_name_H-M    'P1'
_symmetry_Int_Tables_number       1
loop_
_symmetry_equiv_pos_site_id
_symmetry_equiv_pos_as_xyz
1 x,y,z
_cell_length_a                   12.9362
_cell_length_b                   8.8171
_cell_length_c                   14.5282
_cell_angle_alpha                90.0
_cell_angle_beta                 103.821
_cell_angle_gamma                90.0
loop_
_atom_site_label
_atom_site_type_symbol
_atom_site_fract_x
_atom_site_fract_y
_atom_site_fract_z
     1  Br         0.74720000       0.02521000       0.13490000
     2  Br         0.75280000       0.52521000       0.36510000
     3  Br         0.25280000       0.97479000       0.86510000
     4  Br         0.24720000       0.47479000       0.63490000
     5  Br         0.73080000       0.02591000       0.35710000
     6  Br         0.76920000       0.52591000       0.14290000
     7  Br         0.26920000       0.97409000       0.64290000
     8  Br         0.23080000       0.47409000       0.85710000
     9  O          0.64532000       0.03163000       0.04662000
    10  O          0.85468000       0.53163000       0.45338000
    11  O          0.35468000       0.96837000       0.95338000
    12  O          0.14532000       0.46837000       0.54662000
    13  O          0.80372000       0.18923000       0.15082000
    14  O          0.69628000       0.68923000       0.34918000
    15  O          0.19628000       0.81077000       0.84918000
    16  O          0.30372000       0.31077000       0.65082000
    17  O          0.78712000       0.19023000       0.37232000
    18  O          0.71288000       0.69023000       0.12768000
    19  O          0.21288000       0.80977000       0.62768000
    20  O          0.28712000       0.30977000       0.87232000
    21  O          0.62112000       0.03313000       0.39032000
    22  O          0.87888000       0.53313000       0.10968000
    23  O          0.37888000       0.96687000       0.60968000
    24  O          0.12112000       0.46687000       0.89032000
    25  O          0.66541000       0.02323000       0.22712000
    26  O          0.83459000       0.52323000       0.27288000
    27  O          0.33459000       0.97677000       0.77288000
    28  O          0.16541000       0.47677000       0.72712000
    29  N          0.91142000       0.91346000       0.29142000
    30  N          0.58858000       0.41346000       0.20858000
    31  N          0.08858000       0.08654000       0.70858000
    32  N          0.41142000       0.58654000       0.79142000
    33  C          0.97423000       0.83816000       0.33823000
    34  C          0.52577000       0.33816000       0.16177000
    35  C          0.02577000       0.16184000       0.66177000
    36  C          0.47423000       0.66184000       0.83823000
    37  C          0.05683000       0.74305000       0.39783000
    38  C          0.44317000       0.24305000       0.10217000
    39  C          0.94317000       0.25695000       0.60217000
    40  C          0.55683000       0.75695000       0.89783000
    41  C          0.15684000       0.73392000       0.36074000
    42  C          0.34316000       0.23392000       0.13926000
    43  C          0.84316000       0.26608000       0.63926000
    44  C          0.65684000       0.76608000       0.86074000
    45  H          0.08410000       0.78830000       0.46380000
    46  H          0.41590000       0.28830000       0.03620000
    47  H          0.91590000       0.21170000       0.53620000
    48  H          0.58410000       0.71170000       0.96380000
    49  H          0.02690000       0.65100000       0.39930000
    50  H          0.47310000       0.15100000       0.10070000
    51  H          0.97310000       0.34900000       0.60070000
    52  H          0.52690000       0.84900000       0.89930000
    53  H          0.21340000       0.65610000       0.41440000
    54  H          0.28660000       0.15610000       0.08560000
    55  H          0.78660000       0.34390000       0.58560000
    56  H          0.71340000       0.84390000       0.91440000
    57  H          0.19000000       0.83720000       0.34850000
    58  H          0.31000000       0.33720000       0.15150000
    59  H          0.81000000       0.16280000       0.65150000
    60  H          0.69000000       0.66280000       0.84850000
    61  H          0.13830000       0.65920000       0.31220000
    62  H          0.36170000       0.15920000       0.18780000
    63  H          0.86170000       0.34080000       0.68780000
    64  H          0.63830000       0.84080000       0.81220000
    65  N          0.88043000       0.92566000       0.02223000
    66  N          0.61957000       0.42566000       0.47777000
    67  N          0.11957000       0.07434000       0.97777000
    68  N          0.38043000       0.57434000       0.52223000
    69  C          0.93993000       0.83875000       0.00863000
    70  C          0.56007000       0.33875000       0.49137000
    71  C          0.06007000       0.16125000      -0.00863000
    72  C          0.43993000       0.66125000       0.50863000
    73  C          0.01903000       0.72855000      -0.00743000
    74  C          0.48097000       0.22855000       0.50743000
    75  C          0.98097000       0.27145000       0.00743000
    76  C          0.51903000       0.77145000       0.49257000
    77  C          0.10514000       0.69944000       0.08004000
    78  C          0.39486000       0.19944000       0.41996000
    79  C          0.89486000       0.30056000       0.91996000
    80  C          0.60514000       0.80056000       0.58004000
    81  H          0.97950000       0.63840000       0.96310000
    82  H          0.52050000       0.13840000       0.53690000
    83  H          0.02050000       0.36160000       0.03690000
    84  H          0.47950000       0.86160000       0.46310000
    85  H          0.04650000       0.76490000       0.93280000
    86  H          0.45350000       0.26490000       0.56720000
    87  H          0.95350000       0.23510000       0.06720000
    88  H          0.54650000       0.73510000       0.43280000
    89  H          0.16060000       0.60510000       0.06600000
    90  H          0.33940000       0.10510000       0.43400000
    91  H          0.83940000       0.39490000       0.93400000
    92  H          0.66060000       0.89490000       0.56600000
    93  H          0.08500000       0.65740000       0.12420000
    94  H          0.41500000       0.15740000       0.37580000
    95  H          0.91500000       0.34260000       0.87580000
    96  H          0.58500000       0.84260000       0.62420000
    97  H          0.14210000       0.78360000       0.10370000
    98  H          0.35790000       0.28360000       0.39630000
    99  H          0.85790000       0.21640000       0.89630000
   100  H          0.64210000       0.71640000       0.60370000
   101  N          0.14043000       0.08374000       0.47082000
   102  N          0.35957000       0.58374000       0.02918000
   103  N          0.85957000       0.91626000       0.52918000
   104  N          0.64043000       0.41626000       0.97082000
   105  C          0.09223000       0.16655000       0.41803000
   106  C          0.40777000       0.66655000       0.08197000
   107  C          0.90777000       0.83345000       0.58197000
   108  C          0.59223000       0.33345000       0.91803000
   109  C          0.03193000       0.27505000       0.34843000
   110  C          0.46807000       0.77505000       0.15157000
   111  C          0.96807000       0.72495000       0.65157000
   112  C          0.53193000       0.22495000       0.84843000
   113  C          0.08755000       0.31719000       0.27375000
   114  C          0.41245000       0.81719000       0.22625000
   115  C          0.91245000       0.68281000       0.72625000
   116  C          0.58755000       0.18281000       0.77375000
   117  H          0.96560000       0.22110000       0.30740000
   118  H          0.53440000       0.72110000       0.19260000
   119  H          0.03440000       0.77890000       0.69260000
   120  H          0.46560000       0.27890000       0.80740000
   121  H          0.01990000       0.36660000       0.38410000
   122  H          0.48010000       0.86660000       0.11590000
   123  H          0.98010000       0.63340000       0.61590000
   124  H          0.51990000       0.13340000       0.88410000
   125  H          0.04870000       0.42440000       0.22670000
   126  H          0.45130000       0.92440000       0.27330000
   127  H          0.95130000       0.57560000       0.77330000
   128  H          0.54870000       0.07560000       0.72670000
   129  H          0.11400000       0.24710000       0.24920000
   130  H          0.38600000       0.74710000       0.25080000
   131  H          0.88600000       0.75290000       0.75080000
   132  H          0.61400000       0.25290000       0.74920000
   133  H          0.14830000       0.37390000       0.29900000
   134  H          0.35170000       0.87390000       0.20100000
   135  H          0.85170000       0.62610000       0.70100000
   136  H          0.64830000       0.12610000       0.79900000
