data_ZOCKAH
_symmetry_space_group_name_H-M    'P1'
_symmetry_Int_Tables_number       1
loop_
_symmetry_equiv_pos_site_id
_symmetry_equiv_pos_as_xyz
1 x,y,z
_cell_length_a                   11.37486
_cell_length_b                   10.46014
_cell_length_c                   18.28069
_cell_angle_alpha                90.0
_cell_angle_beta                 100.5192
_cell_angle_gamma                90.0
loop_
_atom_site_label
_atom_site_type_symbol
_atom_site_fract_x
_atom_site_fract_y
_atom_site_fract_z
     1  N          0.78022000       0.77922000       0.02888130
     2  N          0.21978000       0.27922000       0.97111870
     3  N          0.48582000       0.20712000       0.15482130
     4  N          0.51418000       0.70712000       0.84517870
     5  N          0.52452000       0.13472000       0.31014130
     6  N          0.47548000       0.63472000       0.68985870
     7  N          0.91842000       0.79792000       0.52990130
     8  N          0.08158000       0.29792000       0.47009870
     9  N          0.80242000       0.60012000       0.60153130
    10  N          0.19758000       0.10012000       0.39846870
    11  N          0.85602000       0.97852000       0.13272130
    12  N          0.14398000       0.47852000       0.86727870
    13  C          0.57652000       0.28053000       0.41302150
    14  C          0.42348000       0.78053000       0.58697850
    15  C          0.54343000       0.57963000       0.07622150
    16  C          0.45657000       0.07963000       0.92377850
    17  H          0.48022900       0.63979100       0.06479800
    18  H          0.51977100       0.13979100       0.93520200
    19  C          0.72623000       0.40423000       0.10979160
    20  C          0.27377000       0.90423000       0.89020840
    21  H          0.78934900       0.34385000       0.12094500
    22  H          0.21065100       0.84385000       0.87905500
    23  C          0.89123000       0.88423000       0.25530160
    24  C          0.10877000       0.38423000       0.74469840
    25  C          0.79873000       0.94833000       0.27997160
    26  C          0.20127000       0.44833000       0.72002840
    27  H          0.74799600       0.00360800       0.24711100
    28  H          0.25200400       0.50360800       0.75288900
    29  C          0.61093000       0.36843000       0.11563150
    30  C          0.38907000       0.86843000       0.88436850
    31  C          0.73612000       0.43013000       0.51279150
    32  C          0.26388000       0.93013000       0.48720850
    33  C          0.77753000       0.33373000       0.47120160
    34  C          0.22247000       0.83373000       0.52879840
    35  H          0.86097000       0.31793200       0.47715400
    36  H          0.13903000       0.81793200       0.52284600
    37  C          0.58683000       0.23863000       0.14068150
    38  C          0.41317000       0.73863000       0.85931850
    39  H          0.64889700       0.17669700       0.14639500
    40  H          0.35110300       0.67669700       0.85360500
    41  C          0.65863000       0.61523000       0.07041150
    42  C          0.34137000       0.11523000       0.92958850
    43  C          0.90193000       0.80673000       0.60700150
    44  C          0.09807000       0.30673000       0.39299850
    45  H          0.82312700       0.84780500       0.60880000
    46  H          0.17687300       0.34780500       0.39120000
    47  C          0.82583000       0.50983000       0.55986160
    48  C          0.17417000       0.00983000       0.44013840
    49  H          0.90754100       0.49251100       0.55914900
    50  H          0.09245900      -0.00748900       0.44085100
    51  C          0.61332000       0.44863000       0.50588150
    52  C          0.38668000       0.94863000       0.49411850
    53  H          0.58335100       0.51240100       0.53462300
    54  H          0.41664900       0.01240100       0.46537700
    55  C          0.94583000       0.78643000       0.37638160
    56  C          0.05417000       0.28643000       0.62361840
    57  H         -0.00398400       0.73037200       0.40910600
    58  H          0.00398400       0.23037200       0.59089400
    59  C          0.69893000       0.26063000       0.42144160
    60  C          0.30107000       0.76063000       0.57855840
    61  H          0.72883500       0.19654900       0.39289700
    62  H          0.27116500       0.69654900       0.60710300
    63  C          0.49093000       0.21163000       0.35615160
    64  C          0.50907000       0.71163000       0.64384840
    65  H          0.40768500       0.22509900       0.35384300
    66  H          0.59231500       0.72509900       0.64615700
    67  C          0.68073000       0.74503000       0.04449150
    68  C          0.31927000       0.24503000       0.95550850
    69  H          0.61757800       0.80565400       0.03924500
    70  H          0.38242200       0.30565400       0.96075500
    71  C          0.84053000       0.84863000       0.47973160
    72  C          0.15947000       0.34863000       0.52026840
    73  H          0.77081000       0.88470700       0.49319600
    74  H          0.22919000       0.38470700       0.50680400
    75  C          0.91463000       0.90223000       0.17910160
    76  C          0.08537000       0.40223000       0.82089840
    77  H          0.97697500       0.85383500       0.16423700
    78  H          0.02302500       0.35383500       0.83576300
    79  C          0.75073000       0.52633000       0.08800170
    80  C          0.24927000       0.02633000       0.91199830
    81  H          0.83043000       0.54972000       0.08500600
    82  H          0.16957000       0.04972000       0.91499400
    83  C          0.00313000       0.88983000       0.64965160
    84  C         -0.00313000       0.38983000       0.35034840
    85  H          0.08101000       0.85433000       0.64265400
    86  H          0.91899000       0.35433000       0.35734600
    87  H         -0.00382700       0.97734400       0.62878600
    88  H          0.00382700       0.47734400       0.37121400
    89  C          0.43043000       0.07753000       0.25430160
    90  C          0.56957000       0.57753000       0.74569840
    91  H          0.35596100       0.12993900       0.25024000
    92  H          0.64403900       0.62993900       0.74976000
    93  C          0.51913000       0.45763000       0.09840160
    94  C          0.48087000       0.95763000       0.90159840
    95  H          0.43953700       0.43460600       0.10191100
    96  H          0.56046300       0.93460600       0.89808900
    97  C          0.85463000       0.85313000       0.40142160
    98  C          0.14537000       0.35313000       0.59857840
    99  C          0.47053000       0.07563000       0.17902160
   100  C          0.52947000       0.57563000       0.82097840
   101  H          0.54871300       0.02959100       0.18419700
   102  H          0.45128700       0.52959100       0.81580300
   103  C          0.81903000       0.91263000       0.92623840
   104  C          0.18097000       0.41263000       0.07376160
   105  H          0.89579300       0.86784900       0.92656100
   106  H          0.10420700       0.36784900       0.07343900
   107  H          0.75594200       0.86663700       0.89160700
   108  H          0.24405800       0.36663700       0.10839300
   109  C          0.88633000       0.98143000       0.05844150
   110  C          0.11367000       0.48143000       0.94155850
   111  H          0.96513600       0.93837200       0.05959400
   112  H          0.03486400       0.43837200       0.94040600
   113  C          0.90473000       0.67263000       0.64087160
   114  C          0.09527000       0.17263000       0.35912840
   115  H          0.98032500       0.62869800       0.63450900
   116  H          0.01967500       0.12869800       0.36549100
   117  C          0.96323000       0.80163000       0.30386160
   118  C          0.03677000       0.30163000       0.69613840
   119  H          0.02491200       0.75521000       0.28704100
   120  H          0.97508800       0.25521000       0.71295900
   121  C          0.53473000       0.37343000       0.45687150
   122  C          0.46527000       0.87343000       0.54312850
   123  H          0.45101600       0.38535300       0.45306600
   124  H          0.54898400       0.88535300       0.54693400
   125  C          0.78023000       0.93193000       0.35189160
   126  C          0.21977000       0.43193000       0.64810840
   127  H          0.71577600       0.97503000       0.36781000
   128  H          0.28422400       0.47503000       0.63219000
   129  C          0.89973000       0.68043000       0.72331160
   130  C          0.10027000       0.18043000       0.27668840
   131  H          0.90496600       0.59321900       0.74468100
   132  H          0.09503400       0.09321900       0.25531900
   133  H          0.82213700       0.71771400       0.72953900
   134  H          0.17786300       0.21771400       0.27046100
   135  C          0.78932000       0.91052000       0.00450150
   136  C          0.21068000       0.41052000      -0.00450150
   137  H          0.71085900       0.95433600       0.00350500
   138  H          0.28914100       0.45433600      -0.00350500
   139  C          0.89343000       0.11933000       0.03213170
   140  C          0.10657000       0.61933000       0.96786830
   141  H          0.81697600       0.16319500       0.03413500
   142  H          0.18302400       0.66319500       0.96586500
   143  H          0.95771600       0.16455800       0.06614400
   144  H          0.04228400       0.66455800       0.93385600
   145  C          0.00013000       0.89613000       0.73252170
   146  C         -0.00013000       0.39613000       0.26747830
   147  H          0.92702600       0.94168100       0.74022200
   148  H          0.07297400       0.44168100       0.25977800
   149  H          0.07029000       0.94446600       0.75839500
   150  H          0.92971000       0.44446600       0.24160500
   151  C          0.37883000       0.00853000       0.12046170
   152  C          0.62117000       0.50853000       0.87953830
   153  H          0.40885400       0.00506000       0.07296900
   154  H          0.59114600       0.50506000       0.92703100
   155  H          0.30345900       0.05813500       0.11194900
   156  H          0.69654100       0.55813500       0.88805100
   157  C          0.91823000       0.12603000       0.95339830
   158  C          0.08177000       0.62603000       0.04660170
   159  H          0.91582300       0.21646700       0.93720500
   160  H          0.08417700       0.71646700       0.06279500
   161  H         -0.00056100       0.09271500       0.95282900
   162  H          0.00056100       0.59271500       0.04717100
   163  C          0.82823000       0.04993000       0.89921840
   164  C          0.17177000       0.54993000       0.10078160
   165  H          0.85254200       0.04900700       0.84992500
   166  H          0.14745800       0.54900700       0.15007500
   167  H          0.74883500       0.09148400       0.89349500
   168  H          0.25116500       0.59148400       0.10650500
   169  C          0.40483000       0.94137000       0.27793170
   170  C          0.59517000       0.44137000       0.72206830
   171  H          0.48013300       0.89177700       0.28678300
   172  H          0.51986700       0.39177700       0.71321700
   173  H          0.37407200       0.94465800       0.32520200
   174  H          0.62592800       0.44465800       0.67479800
   175  C          0.00123000       0.76193000       0.76528160
   176  C         -0.00123000       0.26193000       0.23471840
   177  H          0.07862600       0.72035200       0.76299500
   178  H          0.92137400       0.22035200       0.23700500
   179  H         -0.00670900       0.76776500       0.81822300
   180  H          0.00670900       0.26776500       0.18177700
   181  C          0.35383000       0.87287000       0.14446180
   182  C          0.64617000       0.37287000       0.85553820
   183  H          0.29089500       0.83361700       0.10654000
   184  H          0.70910500       0.33361700       0.89346000
   185  H          0.42714900       0.82062400       0.14811000
   186  H          0.57285100       0.32062400       0.85189000
   187  C          0.31343000       0.87397000       0.21886180
   188  C          0.68657000       0.37397000       0.78113820
   189  H          0.30252200       0.78495300       0.23477500
   190  H          0.69747800       0.28495300       0.76522500
   191  H          0.23545400       0.91825300       0.21377100
   192  H          0.76454600       0.41825300       0.78622900
   193  C          0.45463000       0.49933000       0.27693170
   194  C          0.54537000      -0.00067000       0.72306830
   195  H          0.47655500       0.44382000       0.24053600
   196  H          0.52344500       0.94382000       0.75946400
   197  C          0.33883000       0.49623000       0.29031170
   198  C          0.66117000      -0.00377000       0.70968830
   199  H          0.28241700       0.43884200       0.26311900
   200  H          0.71758300       0.93884200       0.73688100
   201  C          0.53933000       0.58213000       0.31575170
   202  C          0.46067000       0.08213000       0.68424830
   203  C          0.30463000       0.57593000       0.34292180
   204  C          0.69537000       0.07593000       0.65707820
   205  H          0.22503100       0.57402200       0.35203100
   206  H          0.77496900       0.07402200       0.64796900
   207  C          0.38823000       0.65863000       0.38219190
   208  C          0.61177000       0.15863000       0.61780810
   209  H          0.36593500       0.71371100       0.41865500
   210  H          0.63406500       0.21371100       0.58134500
   211  C          0.50373000       0.66163000       0.36873180
   212  C          0.49627000       0.16163000       0.63126820
   213  H          0.55994100       0.71895300       0.39612200
   214  H          0.44005900       0.21895300       0.60387800
   215  C          0.66573000       0.58314000       0.30182000
   216  C          0.33427000       0.08314000       0.69818000
   217  H          0.68266500       0.66611900       0.28120300
   218  H          0.31733500       0.16611900       0.71879700
   219  H          0.67544800       0.51526800       0.26646700
   220  H          0.32455200       0.01526800       0.73353300
   221  H          0.72116100       0.56861800       0.34879400
   222  H          0.27883900       0.06861800       0.65120600
