data_ZODVAT
_symmetry_space_group_name_H-M    'P1'
_symmetry_Int_Tables_number       1
loop_
_symmetry_equiv_pos_site_id
_symmetry_equiv_pos_as_xyz
1 x,y,z
_cell_length_a                   5.1683
_cell_length_b                   8.80391
_cell_length_c                   14.1483
_cell_angle_alpha                88.7451
_cell_angle_beta                 83.633
_cell_angle_gamma                74.52017
loop_
_atom_site_label
_atom_site_type_symbol
_atom_site_fract_x
_atom_site_fract_y
_atom_site_fract_z
     1  S          0.78698900       0.23339600       0.47925400
     2  S          0.21301100       0.76660400       0.52074600
     3  O          0.79903000       0.36424180       0.54578100
     4  O          0.20097000       0.63575820       0.45421900
     5  C          0.44315000       0.22983000       0.49311180
     6  C          0.55685000       0.77017000       0.50688820
     7  C          0.79425000       0.31964000       0.36420170
     8  C          0.20575000       0.68036000       0.63579830
     9  H          0.33350000       0.34130000       0.48971600
    10  H          0.66650000       0.65870000       0.51028400
    11  H          0.43150000       0.16530000       0.44520000
    12  H          0.56850000       0.83470000       0.55480000
    13  H          0.41250000       0.18430000       0.55420000
    14  H          0.58750000       0.81570000       0.44580000
    15  H          0.65950000       0.41630000       0.36741900
    16  H          0.34050000       0.58370000       0.63258100
    17  H          0.76960000       0.24130000       0.32020000
    18  H          0.23040000       0.75870000       0.67980000
    19  H          0.96660000       0.33630000       0.34981900
    20  H          0.03340000       0.66370000       0.65018100
    21  O         -0.00257000       0.31750180       0.69921100
    22  O          0.00257000       0.68249820       0.30078900
    23  N          0.77423000       0.39004190       0.75692110
    24  N          0.22577000       0.60995810       0.24307890
    25  N          0.73423000       0.53812000       0.78587120
    26  N          0.26577000       0.46188000       0.21412880
    27  N          0.50993000       0.56962000       0.84238120
    28  N          0.49007000       0.43038000       0.15761880
    29  N          0.40393000       0.44374190       0.84999120
    30  N          0.59607000       0.55625810       0.15000880
    31  N          0.66573000       0.08132000       0.70880120
    32  N          0.33427000       0.91868000       0.29119880
    33  N          0.57574000       0.94878000       0.72281130
    34  N          0.42426000       0.05122000       0.27718870
    35  N          0.41394000       0.95988000       0.80023130
    36  N          0.58606000       0.04012000       0.19976870
    37  N          0.39573000       0.10209180       0.83904110
    38  N          0.60427000       0.89790820       0.16095890
    39  N          0.30863000       0.19512000       0.00334110
    40  N          0.69137000       0.80488000      -0.00334110
    41  N          0.87607000       0.21612000       0.01576120
    42  N          0.12393000       0.78388000       0.98423880
    43  N          0.96517000       0.16229190       0.92589120
    44  N          0.03483000       0.83770810       0.07410880
    45  C          0.57333000       0.33232000       0.79653130
    46  C          0.42667000       0.66768000       0.20346870
    47  C          0.55054000       0.17442000       0.78152130
    48  C          0.44946000       0.82558000       0.21847870
    49  C          0.22333000       0.15332000       0.92371130
    50  C          0.77667000       0.84668000       0.07628870
    51  C          0.07824000       0.23492000       0.05989150
    52  C          0.92176000       0.76508000       0.94010850
    53  H          0.05750000       0.27830000       0.12161900
    54  H          0.94250000       0.72170000       0.87838100
    55  H          0.71040000       0.23230000       0.03620000
    56  H          0.28960000       0.76770000       0.96380000
    57  H          0.94480000       0.31950000       0.64021300
    58  H          0.05520000       0.68050000       0.35978700
