data_ZODWIY
_symmetry_space_group_name_H-M    'P1'
_symmetry_Int_Tables_number       1
loop_
_symmetry_equiv_pos_site_id
_symmetry_equiv_pos_as_xyz
1 x,y,z
_cell_length_a                   8.3337
_cell_length_b                   11.6034
_cell_length_c                   10.1174
_cell_angle_alpha                90.0
_cell_angle_beta                 112.275
_cell_angle_gamma                90.0
loop_
_atom_site_label
_atom_site_type_symbol
_atom_site_fract_x
_atom_site_fract_y
_atom_site_fract_z
     1  O          0.23042000       0.02392000       0.06912000
     2  O          0.26958000       0.52392000       0.43088000
     3  O          0.76958000       0.97608000       0.93088000
     4  O          0.73042000       0.47608000       0.56912000
     5  O          0.23622000       0.39818000       0.09811200
     6  O          0.26378000       0.89818000       0.40188800
     7  O          0.76378000       0.60182000       0.90188800
     8  O          0.73622000       0.10182000       0.59811200
     9  O          0.46792000       0.91888000       0.14162000
    10  O          0.03208000       0.41888000       0.35838000
    11  O          0.53208000       0.08112000       0.85838000
    12  O          0.96792000       0.58112000       0.64162000
    13  O          0.47223000       0.50338000       0.15983000
    14  O          0.02777000       0.00338000       0.34017000
    15  O          0.52777000       0.49662000       0.84017000
    16  O          0.97223000      -0.00338000       0.65983000
    17  C          0.31213000       0.92478000       0.09293000
    18  C          0.18787000       0.42478000       0.40707000
    19  C          0.68787000       0.07522000       0.90707000
    20  C          0.81213000       0.57522000       0.59293000
    21  C          0.31743000       0.49738000       0.10933000
    22  C          0.18257000      -0.00262000       0.39067000
    23  C          0.68257000       0.50262000       0.89067000
    24  C          0.81743000       0.00262000       0.60933000
    25  C          0.19753000       0.82068000       0.05473000
    26  C          0.30247000       0.32068000       0.44527000
    27  C          0.80247000       0.17932000       0.94527000
    28  C          0.69753000       0.67932000       0.55473000
    29  C          0.20203000       0.60048000       0.06273000
    30  C          0.29797000       0.10048000       0.43727000
    31  C          0.79797000       0.39952000       0.93727000
    32  C          0.70203000       0.89952000       0.56273000
    33  C          0.30333000       0.71148000       0.10163000
    34  C          0.19667000       0.21148000       0.39837000
    35  C          0.69667000       0.28852000       0.89837000
    36  C          0.80333000       0.78852000       0.60163000
    37  H          0.31450000       0.08740000       0.10140000
    38  H          0.18550000       0.58740000       0.39860000
    39  H          0.68550000       0.91260000       0.89860000
    40  H          0.81450000       0.41260000       0.60140000
    41  H          0.31950000       0.33670000       0.12230000
    42  H          0.18050000       0.83670000       0.37770000
    43  H          0.68050000       0.66330000       0.87770000
    44  H          0.81950000       0.16330000       0.62230000
    45  H          0.11720000       0.82520000       0.10080000
    46  H          0.38280000       0.32520000       0.39920000
    47  H          0.88280000       0.17480000       0.89920000
    48  H          0.61720000       0.67480000       0.60080000
    49  H          0.14210000       0.59750000       0.96200000
    50  H          0.35790000       0.09750000       0.53800000
    51  H          0.85790000       0.40250000       0.03800000
    52  H          0.64210000       0.90250000       0.46200000
    53  H          0.13600000       0.81870000       0.95420000
    54  H          0.36400000       0.31870000       0.54580000
    55  H          0.86400000       0.18130000       0.04580000
    56  H          0.63600000       0.68130000       0.45420000
    57  H          0.12050000       0.59860000       0.10770000
    58  H          0.37950000       0.09860000       0.39230000
    59  H          0.87950000       0.40140000       0.89230000
    60  H          0.62050000       0.90140000       0.60770000
    61  H          0.38720000       0.71080000       0.05880000
    62  H          0.11280000       0.21080000       0.44120000
    63  H          0.61280000       0.28920000       0.94120000
    64  H          0.88720000       0.78920000       0.55880000
    65  H          0.36070000       0.71390000       0.20250000
    66  H          0.13930000       0.21390000       0.29750000
    67  H          0.63930000       0.28610000       0.79750000
    68  H          0.86070000       0.78610000       0.70250000
    69  O          0.43802000       0.21172000       0.15612000
    70  O          0.06198000       0.71172000       0.34388000
    71  O          0.56198000       0.78828000       0.84388000
    72  O          0.93802000       0.28828000       0.65612000
    73  N          0.68843000       0.11282000       0.24343000
    74  N          0.81157000       0.61282000       0.25657000
    75  N          0.31157000       0.88718000       0.75657000
    76  N          0.18843000       0.38718000       0.74343000
    77  N          0.68714000       0.30642000       0.27583000
    78  N          0.81286000       0.80642000       0.22417000
    79  N          0.31286000       0.69358000       0.72417000
    80  N          0.18714000       0.19358000       0.77583000
    81  C          0.60013000       0.21022000       0.22363000
    82  C          0.89987000       0.71022000       0.27637000
    83  C          0.39987000       0.78978000       0.77637000
    84  C          0.10013000       0.28978000       0.72363000
    85  H          0.62740000       0.05230000       0.21630000
    86  H          0.87260000       0.55230000       0.28370000
    87  H          0.37260000       0.94770000       0.78370000
    88  H          0.12740000       0.44770000       0.71630000
    89  H          0.62240000       0.37530000       0.25230000
    90  H          0.87760000       0.87530000       0.24770000
    91  H          0.37760000       0.62470000       0.74770000
    92  H          0.12240000       0.12470000       0.75230000
    93  H          0.80040000       0.10830000       0.29130000
    94  H          0.69960000       0.60830000       0.20870000
    95  H          0.19960000       0.89170000       0.70870000
    96  H          0.30040000       0.39170000       0.79130000
    97  H          0.79250000       0.30330000       0.31740000
    98  H          0.70750000       0.80330000       0.18260000
    99  H          0.20750000       0.69670000       0.68260000
   100  H          0.29250000       0.19670000       0.81740000
