data_ZOFYAX
_symmetry_space_group_name_H-M    'P1'
_symmetry_Int_Tables_number       1
loop_
_symmetry_equiv_pos_site_id
_symmetry_equiv_pos_as_xyz
1 x,y,z
_cell_length_a                   5.67135
_cell_length_b                   8.28997
_cell_length_c                   15.973314
_cell_angle_alpha                85.3857
_cell_angle_beta                 81.8327
_cell_angle_gamma                78.3166
loop_
_atom_site_label
_atom_site_type_symbol
_atom_site_fract_x
_atom_site_fract_y
_atom_site_fract_z
     1  Cl         0.15552900       0.03336600       0.80717300
     2  Cl         0.84447100       0.96663400       0.19282700
     3  S          0.39706900       0.78808600       0.03547300
     4  S          0.60293100       0.21191400       0.96452700
     5  O          0.60293000       0.71166190       0.97060100
     6  O          0.39707000       0.28833810       0.02939900
     7  C          0.43315000       0.66033000       0.12981140
     8  C          0.56685000       0.33967000       0.87018860
     9  H          0.45620000       0.54430000       0.11660000
    10  H          0.54380000       0.45570000       0.88340000
    11  H          0.28780000       0.68800000       0.17110000
    12  H          0.71220000       0.31200000       0.82890000
    13  H          0.57510000       0.67830000       0.15360000
    14  H          0.42490000       0.32170000       0.84640000
    15  C          0.13354000       0.72953000       0.00978150
    16  C          0.86646000       0.27047000       0.99021850
    17  H          0.09320000       0.78420000       0.95550000
    18  H          0.90680000       0.21580000       0.04450000
    19  H         -0.00220000       0.76220000       0.05420000
    20  H          0.00220000       0.23780000       0.94580000
    21  H          0.16380000       0.60960000       0.00540000
    22  H          0.83620000       0.39040000      -0.00540000
    23  O         -0.00753000       0.65619190       0.40149100
    24  O          0.00753000       0.34380810       0.59850900
    25  N          0.29533000       0.14082000       0.18216100
    26  N          0.70467000       0.85918000       0.81783900
    27  H          0.32160000       0.18130000       0.12770000
    28  H          0.67840000       0.81870000       0.87230000
    29  H          0.17480000       0.08160000       0.18720000
    30  H          0.82520000       0.91840000       0.81280000
    31  H          0.43390000       0.07440000       0.19640000
    32  H          0.56610000       0.92560000       0.80360000
    33  C          0.22384000       0.27772000       0.23862120
    34  C          0.77616000       0.72228000       0.76137880
    35  C          0.37954000       0.30402000       0.29232130
    36  C          0.62046000       0.69598000       0.70767870
    37  H          0.53410000       0.23380000       0.29260000
    38  H          0.46590000       0.76620000       0.70740000
    39  C          0.31044000       0.43353000       0.34623130
    40  C          0.68956000       0.56647000       0.65376870
    41  H          0.41730000       0.45260000       0.38340000
    42  H          0.58270000       0.54740000       0.61660000
    43  C          0.08434000       0.53443000       0.34516130
    44  C          0.91566000       0.46557000       0.65483870
    45  C          0.14984000       0.74442000       0.42788140
    46  C          0.85016000       0.25558000       0.57211860
    47  C          0.11514000       0.78003000       0.51217130
    48  C          0.88486000       0.21997000       0.48782870
    49  H         -0.00200000       0.73580000       0.55090000
    50  H          0.00200000       0.26420000       0.44910000
    51  C          0.25134000       0.88033000       0.53985130
    52  C          0.74866000       0.11967000       0.46014870
    53  H          0.22390000       0.90620000       0.59770000
    54  H          0.77610000       0.09380000       0.40230000
    55  C          0.42834000       0.94482000       0.48534120
    56  C          0.57166000       0.05518000       0.51465880
    57  C         -0.00174000       0.37923000       0.23671130
    58  C          0.00174000       0.62077000       0.76328870
    59  H          0.89210000       0.36000000       0.19920000
    60  H          0.10790000       0.64000000       0.80080000
    61  C          0.92876000       0.50933000       0.29016140
    62  C          0.07124000       0.49067000       0.70983860
    63  H          0.77540000       0.58080000       0.28900000
    64  H          0.22460000       0.41920000       0.71100000
    65  C          0.32194000       0.80623000       0.37191130
    66  C          0.67806000       0.19377000       0.62808870
    67  H          0.34440000       0.78240000       0.31380000
    68  H          0.65560000       0.21760000       0.68620000
    69  C          0.46154000       0.90322000       0.40075130
    70  C          0.53846000       0.09678000       0.59924870
    71  H          0.58340000       0.94260000       0.36220000
    72  H          0.41660000       0.05740000       0.63780000
