data_ZOGVUO
_symmetry_space_group_name_H-M    'P1'
_symmetry_Int_Tables_number       1
loop_
_symmetry_equiv_pos_site_id
_symmetry_equiv_pos_as_xyz
1 x,y,z
_cell_length_a                   7.65274
_cell_length_b                   12.73317
_cell_length_c                   15.44469
_cell_angle_alpha                67.32001
_cell_angle_beta                 88.5582
_cell_angle_gamma                81.61601
loop_
_atom_site_label
_atom_site_type_symbol
_atom_site_fract_x
_atom_site_fract_y
_atom_site_fract_z
     1  N          0.24184190       0.17890110       0.00542900
     2  N          0.75815810       0.82109890      -0.00542900
     3  H          0.18530000       0.23541900       0.96048400
     4  H          0.81470000       0.76458100       0.03951600
     5  C          0.25510190       0.06869120       0.01225100
     6  C          0.74489810       0.93130880       0.98774900
     7  N          0.33312180      -0.00427890       0.09334900
     8  N          0.66687820       0.00427890       0.90665100
     9  C          0.37032000       0.06354140       0.13962110
    10  C          0.62968000       0.93645860       0.86037890
    11  H          0.42660000       0.03550000       0.20010000
    12  H          0.57340000       0.96450000       0.79990000
    13  C          0.31482000       0.17681130       0.08628110
    14  C          0.68518000       0.82318870       0.91371890
    15  H          0.32470000       0.24090000       0.10200000
    16  H          0.67530000       0.75910000       0.89800000
    17  N          0.12747180       0.12081110       0.85754100
    18  N          0.87252820       0.87918890       0.14245900
    19  C          0.19486180       0.03662120       0.93838900
    20  C          0.80513820       0.96337880       0.06161100
    21  C          0.20652000       0.92131130       0.95073890
    22  C          0.79348000       0.07868870       0.04926110
    23  H          0.25330000       0.86380000       0.00880000
    24  H          0.74670000       0.13620000      -0.00880000
    25  N          0.15512000       0.88841120       0.88476900
    26  N          0.84488000       0.11158880       0.11523100
    27  C          0.08922000       0.97212140       0.80503890
    28  C          0.91078000       0.02787860       0.19496110
    29  H          0.05150000       0.95270000       0.75570000
    30  H          0.94850000       0.04730000       0.24430000
    31  C          0.07432000       0.08691140       0.79218890
    32  C          0.92568000       0.91308860       0.20781110
    33  H          0.02410000       0.14370000       0.73460000
    34  H          0.97590000       0.85630000       0.26540000
    35  N          0.08176160       0.36871890       0.73693900
    36  N          0.91823840       0.63128110       0.26306100
    37  H          0.10230000       0.30298100       0.77951500
    38  H          0.89770000       0.69701900       0.22048500
    39  C         -0.00868830       0.46603890       0.74208900
    40  C          0.00868830       0.53396110       0.25791100
    41  N         -0.01360840       0.55485900       0.66077800
    42  N          0.01360840       0.44514100       0.33922200
    43  C          0.07857190       0.51214870       0.60083100
    44  C          0.92142810       0.48785130       0.39916900
    45  H          0.09840000       0.55610000       0.53690000
    46  H          0.90160000       0.44390000       0.46310000
    47  C          0.13761190       0.39703870       0.64674100
    48  C          0.86238810       0.60296130       0.35325900
    49  H          0.20370000       0.34710000       0.62130000
    50  H          0.79630000       0.65290000       0.37870000
    51  N          0.95767180       0.37532890       0.90795900
    52  N          0.04232820       0.62467110       0.09204100
    53  C          0.91019180       0.46749890       0.82824100
    54  C          0.08980820       0.53250110       0.17175900
    55  C          0.78452000       0.55889870       0.82766110
    56  C          0.21548000       0.44110130       0.17233890
    57  H          0.75800000       0.62400000       0.77050000
    58  H          0.24200000       0.37600000       0.22950000
    59  N          0.70042000       0.55812880       0.90434100
    60  N          0.29958000       0.44187120       0.09565900
    61  C          0.74452000       0.46484860       0.98290110
    62  C          0.25548000       0.53515140       0.01709890
    63  H          0.68530000       0.45970000       0.03890000
    64  H          0.31470000       0.54030000       0.96110000
    65  C          0.87382000       0.37549870       0.98503110
    66  C          0.12618000       0.62450130       0.01496890
    67  H          0.90380000       0.31240000       0.04300000
    68  H          0.09620000       0.68760000       0.95700000
    69  C          0.47984180       0.57690110       0.27189100
    70  C          0.52015820       0.42309890       0.72810900
    71  I          0.41168012       0.75473670       0.20059960
    72  I          0.58831988       0.24526330       0.79940040
    73  C          0.58784180       0.51310120       0.23067900
    74  C          0.41215820       0.48689880       0.76932100
    75  F          0.64749130       0.56529800       0.14413600
    76  F          0.35250870       0.43470200       0.85586400
    77  C          0.63785180       0.39571120       0.27648900
    78  C          0.36214820       0.60428880       0.72351100
    79  F          0.74682120       0.33993700       0.23353600
    80  F          0.25317880       0.66006300       0.76646400
    81  C          0.58111170       0.33558110       0.36612900
    82  C          0.41888830       0.66441890       0.63387100
    83  C          0.47321180       0.40054120       0.40721900
    84  C          0.52678820       0.59945880       0.59278100
    85  F          0.41374120       0.34901800       0.49354600
    86  F          0.58625880       0.65098200       0.50645400
    87  C          0.42341170       0.51781120       0.36105100
    88  C          0.57658830       0.48218880       0.63894900
    89  F          0.31823120       0.57406800       0.40481700
    90  F          0.68176880       0.42593200       0.59518300
    91  C          0.75749180       0.97104880       0.50795100
    92  C          0.24250820       0.02895120       0.49204900
    93  I          0.85505611       0.79565430       0.57660660
    94  I          0.14494389       0.20434570       0.42339340
    95  C          0.77122190       0.04799120       0.54991100
    96  C          0.22877810       0.95200880       0.45008900
    97  F          0.84668150       0.01076900       0.63605700
    98  F          0.15331850       0.98923100       0.36394300
    99  C          0.71313180       0.16445120       0.50521100
   100  C          0.28686820       0.83554880       0.49478900
   101  F          0.74041130       0.23361800       0.54862600
   102  F          0.25958870       0.76638200       0.45137400
   103  C          0.63639170       0.21047110       0.41536900
   104  C          0.36360830       0.78952890       0.58463100
   105  C          0.61944170       0.13279110       0.37375900
   106  C          0.38055830       0.86720890       0.62624100
   107  F          0.53994130       0.17022800       0.28863600
   108  F          0.46005870       0.82977200       0.71136400
   109  C          0.67884180       0.01623120       0.41888100
   110  C          0.32115820       0.98376880       0.58111900
   111  F          0.65575130       0.94646200       0.37452700
   112  F          0.34424870       0.05353800       0.62547300
