data_ZOHTEX
_symmetry_space_group_name_H-M    'P1'
_symmetry_Int_Tables_number       1
loop_
_symmetry_equiv_pos_site_id
_symmetry_equiv_pos_as_xyz
1 x,y,z
_cell_length_a                   7.024314
_cell_length_b                   9.415218
_cell_length_c                   10.9282
_cell_angle_alpha                82.7506
_cell_angle_beta                 79.1476
_cell_angle_gamma                76.7035
loop_
_atom_site_label
_atom_site_type_symbol
_atom_site_fract_x
_atom_site_fract_y
_atom_site_fract_z
     1  H         -0.00240000       0.32730000       0.53820000
     2  H          0.00240000       0.67270000       0.46180000
     3  Cl         0.46442700       0.68283500       0.49717500
     4  Cl         0.53557300       0.31716500       0.50282500
     5  Cl         0.25550800       0.83391500       0.74496500
     6  Cl         0.74449200       0.16608500       0.25503500
     7  Cl         0.44791800       0.87407600       0.23894500
     8  Cl         0.55208200       0.12592400       0.76105500
     9  O          0.05506190       0.30340130       0.47157120
    10  O          0.94493810       0.69659870       0.52842880
    11  C          0.15572000       0.07825180       0.59699160
    12  C          0.84428000       0.92174820       0.40300840
    13  H          0.09640000       0.12090000       0.67090000
    14  H          0.90360000       0.87910000       0.32910000
    15  C          0.33582000       0.95040190       0.37796170
    16  C          0.66418000       0.04959810       0.62203830
    17  C          0.23942000       0.09626190       0.37203160
    18  C          0.76058000       0.90373810       0.62796840
    19  H          0.23560000       0.15090000       0.29510000
    20  H          0.76440000       0.84910000       0.70490000
    21  C          0.34402000       0.86558180       0.49145180
    22  C          0.65598000       0.13441820       0.50854820
    23  C          0.14822000       0.16040170       0.48193160
    24  C          0.85178000       0.83959830       0.51806840
    25  C          0.25263000       0.93224190       0.59986170
    26  C          0.74737000       0.06775810       0.40013830
    27  H          0.75170000       0.39020000       0.71820000
    28  H          0.24830000       0.60980000       0.28180000
    29  H          0.82770000       0.50720000       0.66341900
    30  H          0.17230000       0.49280000       0.33658100
    31  Cl         0.39502800       0.30305600       0.06286500
    32  Cl         0.60497200       0.69694400       0.93713500
    33  N          0.84927000       0.41972000       0.69092160
    34  N          0.15073000       0.58028000       0.30907840
    35  C          0.22803000       0.34062000       0.95682160
    36  C          0.77197000       0.65938000       0.04317840
    37  C          0.11213000       0.47989190       0.77659170
    38  C          0.88787000       0.52010810       0.22340830
    39  H          0.12120000       0.55430000       0.71250000
    40  H          0.87880000       0.44570000       0.28750000
    41  C          0.97087000       0.39656190       0.78544160
    42  C          0.02913000       0.60343810       0.21455840
    43  C          0.95897000       0.28492000       0.88099170
    44  C          0.04103000       0.71508000       0.11900830
    45  H          0.86370000       0.22900000       0.88750000
    46  H          0.13630000       0.77100000       0.11250000
    47  C          0.24043000       0.45272000       0.86321170
    48  C          0.75957000       0.54728000       0.13678830
    49  H          0.33410000       0.50970000       0.85820000
    50  H          0.66590000       0.49030000       0.14180000
    51  C          0.08893000       0.25652000       0.96680170
    52  C          0.91107000       0.74348000       0.03319830
    53  H          0.08180000       0.18140000       0.03040000
    54  H          0.91820000       0.81860000       0.96960000
