data_ZOHTOH
_symmetry_space_group_name_H-M    'P1'
_symmetry_Int_Tables_number       1
loop_
_symmetry_equiv_pos_site_id
_symmetry_equiv_pos_as_xyz
1 x,y,z
_cell_length_a                   7.05726
_cell_length_b                   15.466513
_cell_length_c                   13.211211
_cell_angle_alpha                90.0
_cell_angle_beta                 98.9807
_cell_angle_gamma                90.0
loop_
_atom_site_label
_atom_site_type_symbol
_atom_site_fract_x
_atom_site_fract_y
_atom_site_fract_z
     1  H          0.20960000       0.64821800       0.07720000
     2  H          0.79040000       0.14821800       0.92280000
     3  H          0.09760000       0.67301700       0.14881800
     4  H          0.90240000       0.17301700       0.85118200
     5  Cl         0.85979300       0.53302300       0.23536400
     6  Cl         0.14020700       0.03302300       0.76463600
     7  Cl         0.13246200       0.71523300       0.34275400
     8  Cl         0.86753800       0.21523300       0.65724600
     9  N          0.20137000       0.67400130       0.13019150
    10  N          0.79863000       0.17400130       0.86980850
    11  C          0.64567000       0.60266140       0.36698160
    12  C          0.35433000       0.10266140       0.63301840
    13  H          0.74640000       0.58870000       0.41850000
    14  H          0.25360000       0.08870000       0.58150000
    15  C          0.33567000       0.66388130       0.31244150
    16  C          0.66433000       0.16388130       0.68755850
    17  C          0.34587000       0.64636120       0.20982150
    18  C          0.65413000       0.14636120       0.79017850
    19  C          0.48237000       0.64228140       0.38990160
    20  C          0.51763000       0.14228140       0.61009840
    21  H          0.47140000       0.65440000       0.45770000
    22  H          0.52860000       0.15440000       0.54230000
    23  C          0.65587000       0.58429130       0.26604160
    24  C          0.34413000       0.08429130       0.73395840
    25  C          0.50917000       0.60528130       0.18724150
    26  C          0.49083000       0.10528130       0.81275850
    27  H          0.52010000       0.59190000       0.11980000
    28  H          0.47990000       0.09190000       0.88020000
    29  H          0.84530000       0.30951600       0.11801900
    30  H          0.15470000       0.80951600       0.88198100
    31  H          0.94440000       0.28520000       0.21420000
    32  H          0.05560000       0.78520000       0.78580000
    33  Cl         0.17446800       0.42597400       0.11905500
    34  Cl         0.82553200       0.92597400       0.88094500
    35  Cl         0.89857110       0.29635500       0.40595500
    36  Cl         0.10142890       0.79635500       0.59404500
    37  N          0.83643000       0.28576130       0.17706150
    38  N          0.16357000       0.78576130       0.82293850
    39  C          0.52243000       0.35229130       0.15740160
    40  C          0.47757000       0.85229130       0.84259840
    41  H          0.51330000       0.34910000       0.08650000
    42  H          0.48670000       0.84910000       0.91350000
    43  C          0.37734000       0.39078160       0.30534190
    44  C          0.62266000       0.89078160       0.69465810
    45  H          0.27410000       0.41300000       0.33300000
    46  H          0.72590000       0.91300000       0.66700000
    47  C          0.69114000       0.32839150       0.32645170
    48  C          0.30886000       0.82839150       0.67354830
    49  C          0.68613000       0.32261130       0.22005160
    50  C          0.31387000       0.82261130       0.77994840
    51  C          0.37283000       0.38670140       0.20101170
    52  C          0.62717000       0.88670140       0.79898830
    53  C          0.53824000       0.36114160       0.36756180
    54  C          0.46176000       0.86114160       0.63243820
    55  H          0.54410000       0.36320000       0.43830000
    56  H          0.45590000       0.86320000       0.56170000
    57  H          0.20940000       0.80280000       0.07720000
    58  H          0.79060000       0.30280000       0.92280000
    59  Cl         0.23666800       0.16589300       0.04147400
    60  Cl         0.76333200       0.66589300       0.95852600
    61  Cl         0.29897800       0.98342600       0.39458400
    62  Cl         0.70102200       0.48342600       0.60541600
    63  Cl         0.29478800       0.16329300       0.28225400
    64  Cl         0.70521200       0.66329300       0.71774600
    65  O          0.21042000       0.84097890       0.04406120
    66  O          0.78958000       0.34097890       0.95593880
    67  C          0.26763000       0.06808130       0.21328150
    68  C          0.73237000       0.56808130       0.78671850
    69  C          0.25143000       0.91127870       0.20845150
    70  C          0.74857000       0.41127870       0.79154850
    71  H          0.25440000       0.85870000       0.24280000
    72  H          0.74560000       0.35870000       0.75720000
    73  C          0.22453000      -0.00767130       0.05134150
    74  C          0.77547000       0.49232870       0.94865850
    75  H          0.20960000      -0.00600000       0.98020000
    76  H          0.79040000       0.49400000       0.01980000
    77  C          0.24333000       0.06827130       0.10715150
    78  C          0.75667000       0.56827130       0.89284850
    79  C          0.27023000       0.98824870       0.26251130
    80  C          0.72977000       0.48824870       0.73748870
    81  C          0.22793000       0.91385870       0.10172150
    82  C          0.77207000       0.41385870       0.89827850
    83  H          0.79740000       0.16120000       0.13120000
    84  H          0.20260000       0.66120000       0.86880000
    85  Cl         0.69544900       0.80222600       0.15903500
    86  Cl         0.30455100       0.30222600       0.84096500
    87  Cl         0.82810800       0.02746400       0.47583400
    88  Cl         0.17189200       0.52746400       0.52416600
    89  Cl         0.73955800       0.83679600       0.39542400
    90  Cl         0.26044200       0.33679600       0.60457600
    91  O          0.76573000       0.12012120       0.10219130
    92  O          0.23427000       0.62012120       0.89780870
    93  C          0.73623000       0.97257860       0.13807160
    94  C          0.26377000       0.47257860       0.86192840
    95  H          0.71890000       0.96120000       0.06810000
    96  H          0.28110000       0.46120000       0.93190000
    97  C          0.75763000       0.92072870       0.31157160
    98  C          0.24237000       0.42072870       0.68842840
    99  C          0.78953000       0.00541130       0.34575140
   100  C          0.21047000       0.50541130       0.65424860
   101  C          0.76543000       0.05717140       0.17340160
   102  C          0.23457000       0.55717140       0.82659840
   103  C          0.79463000       0.07324130       0.27838160
   104  C          0.20537000       0.57324130       0.72161840
   105  H          0.81730000       0.12930000       0.30290000
   106  H          0.18270000       0.62930000       0.69710000
   107  C          0.73313000       0.90649870       0.20637160
   108  C          0.26687000       0.40649870       0.79362840
