data_ZOHVEZ
_symmetry_space_group_name_H-M    'P1'
_symmetry_Int_Tables_number       1
loop_
_symmetry_equiv_pos_site_id
_symmetry_equiv_pos_as_xyz
1 x,y,z
_cell_length_a                   7.056215
_cell_length_b                   9.3732
_cell_length_c                   11.1102
_cell_angle_alpha                83.3586
_cell_angle_beta                 79.1736
_cell_angle_gamma                76.5885
loop_
_atom_site_label
_atom_site_type_symbol
_atom_site_fract_x
_atom_site_fract_y
_atom_site_fract_z
     1  H          0.67560000      -0.01250000       0.34540000
     2  H          0.32440000       0.01250000       0.65460000
     3  H          0.76060000       0.10640000       0.29140000
     4  H          0.23940000       0.89360000       0.70860000
     5  Br         0.10078500       0.20720400       0.93630300
     6  Br         0.89921500       0.79279600       0.06369700
     7  N          0.65374000       0.07553000       0.31323000
     8  N          0.34626000       0.92447000       0.68677000
     9  C          0.28184000       0.16113000       0.04983000
    10  C          0.71816000       0.83887000       0.95017000
    11  C          0.53444000       0.10033000       0.21983000
    12  C          0.46556000       0.89967000       0.78017000
    13  C          0.42245000       0.24304000       0.04223000
    14  C          0.57755000       0.75696000       0.95777000
    15  H          0.43120000       0.31880000       0.98100000
    16  H          0.56880000       0.68120000       0.01900000
    17  C          0.39165000       0.01913000       0.22543000
    18  C          0.60835000       0.98087000       0.77457000
    19  H          0.38020000       0.94410000       0.28720000
    20  H          0.61980000       0.05590000       0.71280000
    21  C          0.55115000       0.21173000       0.12683000
    22  C          0.44885000       0.78827000       0.87317000
    23  H          0.64850000       0.26530000       0.12130000
    24  H          0.35150000       0.73470000       0.87870000
    25  C          0.26595000       0.04903000       0.13973000
    26  C          0.73405000       0.95097000       0.86027000
    27  H          0.17130000      -0.00650000       0.14300000
    28  H          0.82870000       0.00650000       0.85700000
    29  H          0.49440000       0.83140000       0.53940000
    30  H          0.50560000       0.16860000       0.46060000
    31  Cl         0.96362880       0.18035800       0.50580900
    32  Cl         0.03637120       0.81964200       0.49419100
    33  Cl         0.74658870       0.33750900       0.74615800
    34  Cl         0.25341130       0.66249100       0.25384200
    35  Cl         0.95420870       0.36577100       0.25074800
    36  Cl         0.04579130       0.63422900       0.74925200
    37  O          0.55367000       0.80152000       0.47262000
    38  O          0.44633000       0.19848000       0.52738000
    39  C          0.65176000       0.57943000       0.59783000
    40  C          0.34824000       0.42057000       0.40217000
    41  H          0.59020000       0.62440000       0.66950000
    42  H          0.40980000       0.37560000       0.33050000
    43  C          0.74156000       0.59193000       0.37773000
    44  C          0.25844000       0.40807000       0.62227000
    45  H          0.73970000       0.64520000       0.30180000
    46  H          0.26030000       0.35480000       0.69820000
    47  C          0.64706000       0.65783000       0.48533000
    48  C          0.35294000       0.34217000       0.51467000
    49  C          0.84406000       0.36363000       0.49763000
    50  C          0.15594000       0.63637000       0.50237000
    51  C          0.74906000       0.43283000       0.60343000
    52  C          0.25094000       0.56717000       0.39657000
    53  C          0.83836000       0.44553000       0.38573000
    54  C          0.16164000       0.55447000       0.61427000
