data_ZOHVID
_symmetry_space_group_name_H-M    'P1'
_symmetry_Int_Tables_number       1
loop_
_symmetry_equiv_pos_site_id
_symmetry_equiv_pos_as_xyz
1 x,y,z
_cell_length_a                   7.0833
_cell_length_b                   9.3544
_cell_length_c                   11.4565
_cell_angle_alpha                84.1187
_cell_angle_beta                 79.5557
_cell_angle_gamma                76.5537
loop_
_atom_site_label
_atom_site_type_symbol
_atom_site_fract_x
_atom_site_fract_y
_atom_site_fract_z
     1  C          0.64664000       0.15543000      -0.01113000
     2  C          0.35336000       0.84457000       0.01113000
     3  C          0.74474000       0.08453000       0.88697000
     4  C          0.25526000       0.91547000       0.11303000
     5  H          0.74560000       0.13480000       0.81260000
     6  H          0.25440000       0.86520000       0.18740000
     7  C          0.84104000       0.93823000       0.89777000
     8  C          0.15896000       0.06177000       0.10223000
     9  C          0.84094000       0.85933000       0.00743000
    10  C          0.15906000       0.14067000      -0.00743000
    11  C          0.74164000       0.93273000       0.10723000
    12  C          0.25836000       0.06727000       0.89277000
    13  C          0.64574000       0.07973000       0.09983000
    14  C          0.35426000       0.92027000       0.90017000
    15  H          0.58150000       0.12700000       0.16820000
    16  H          0.41850000       0.87300000       0.83180000
    17  Cl         0.96210130       0.85307100       0.76943200
    18  Cl         0.03789870       0.14692900       0.23056800
    19  Cl         0.95991120       0.67672800       0.01919900
    20  Cl         0.04008880       0.32327200       0.98080100
    21  Cl         0.73172140       0.84277900       0.24748800
    22  Cl         0.26827860       0.15722100       0.75251200
    23  O          0.55343000       0.29882000       0.97404810
    24  O          0.44657000       0.70118000       0.02595190
    25  H          0.48840000       0.32680000       0.03760000
    26  H          0.51160000       0.67320000       0.96240000
    27  C          0.45964000       0.40293000       0.27153000
    28  C          0.54036000       0.59707000       0.72847000
    29  C          0.60485000       0.48143000       0.27033000
    30  C          0.39515000       0.51857000       0.72967000
    31  H          0.61930000       0.55700000       0.21220000
    32  H          0.38070000       0.44300000       0.78780000
    33  C          0.72715000       0.44744000       0.35493000
    34  C          0.27285000       0.55256000       0.64507000
    35  H          0.82430000       0.49980000       0.35350000
    36  H          0.17570000       0.50020000       0.64650000
    37  C          0.70555000       0.33584000       0.44173000
    38  C          0.29445000       0.66416000       0.55827000
    39  C          0.56045000       0.25714000       0.44493000
    40  C          0.43955000       0.74286000       0.55507000
    41  H          0.54660000       0.18140000       0.50290000
    42  H          0.45340000       0.81860000       0.49710000
    43  C          0.43645000       0.29314000       0.36053000
    44  C          0.56355000       0.70686000       0.63947000
    45  H          0.33640000       0.24290000       0.36370000
    46  H          0.66360000       0.75710000       0.63630000
    47  I          0.90135300       0.27572300       0.56420119
    48  I          0.09864700       0.72427700       0.43579881
    49  N          0.34594000       0.43073000       0.17903000
    50  N          0.65406000       0.56927000       0.82097000
    51  H          0.32860000       0.51550000       0.14730000
    52  H          0.67140000       0.48450000       0.85270000
    53  H          0.24360000       0.40140000       0.19530000
    54  H          0.75640000       0.59860000       0.80470000
