data_ZOHVUP
_symmetry_space_group_name_H-M    'P1'
_symmetry_Int_Tables_number       1
loop_
_symmetry_equiv_pos_site_id
_symmetry_equiv_pos_as_xyz
1 x,y,z
_cell_length_a                   7.8515
_cell_length_b                   11.8657
_cell_length_c                   14.8918
_cell_angle_alpha                90.0
_cell_angle_beta                 106.793
_cell_angle_gamma                90.0
loop_
_atom_site_label
_atom_site_type_symbol
_atom_site_fract_x
_atom_site_fract_y
_atom_site_fract_z
     1  Cl         0.80413700       0.66152600       0.02255300
     2  Cl         0.19586300       0.16152600       0.47744700
     3  Cl         0.19586300       0.33847400       0.97744700
     4  Cl         0.80413700       0.83847400       0.52255300
     5  Cl         0.49563700       0.52657600       0.66401700
     6  Cl         0.50436300       0.02657600       0.83598300
     7  Cl         0.50436300       0.47342400       0.33598300
     8  Cl         0.49563700       0.97342400       0.16401700
     9  Cl         0.59367700       0.47901600       0.88199700
    10  Cl         0.40632300       0.97901600       0.61800300
    11  Cl         0.40632300       0.52098400       0.11800300
    12  Cl         0.59367700       0.02098400       0.38199700
    13  O          0.87627190       0.86522880       0.93505900
    14  O          0.12372810       0.36522880       0.56494100
    15  O          0.12372810       0.13477120       0.06494100
    16  O          0.87627190       0.63477120       0.43505900
    17  H          0.92500000       0.91750000       0.92220000
    18  H          0.07500000       0.41750000       0.57780000
    19  H          0.07500000       0.08250000       0.07780000
    20  H          0.92500000       0.58250000       0.42220000
    21  C          0.78782000       0.78938840       0.87127870
    22  C          0.21218000       0.28938840       0.62872130
    23  C          0.21218000       0.21061160       0.12872130
    24  C          0.78782000       0.71061160       0.37127870
    25  C          0.74123000       0.80866840       0.77501870
    26  C          0.25877000       0.30866840       0.72498130
    27  C          0.25877000       0.19133160       0.22498130
    28  C          0.74123000       0.69133160       0.27501870
    29  H          0.77070000       0.87690000       0.75260000
    30  H          0.22930000       0.37690000       0.74740000
    31  H          0.22930000       0.12310000       0.24740000
    32  H          0.77070000       0.62310000       0.25260000
    33  C          0.65172000       0.72781830       0.71250870
    34  C          0.34828000       0.22781830       0.78749130
    35  C          0.34828000       0.27218170       0.28749130
    36  C          0.65172000       0.77218170       0.21250870
    37  H          0.62280000       0.74150000       0.64840000
    38  H          0.37720000       0.24150000       0.85160000
    39  H          0.37720000       0.25850000       0.35160000
    40  H          0.62280000       0.75850000       0.14840000
    41  C          0.60502000       0.62664840       0.74474870
    42  C          0.39498000       0.12664840       0.75525130
    43  C          0.39498000       0.37335160       0.25525130
    44  C          0.60502000       0.87335160       0.24474870
    45  C          0.64792000       0.60561850       0.84079870
    46  C          0.35208000       0.10561850       0.65920130
    47  C          0.35208000       0.39438150       0.15920130
    48  C          0.64792000       0.89438150       0.34079870
    49  C          0.73962000       0.68725840       0.90342870
    50  C          0.26038000       0.18725840       0.59657130
    51  C          0.26038000       0.31274160       0.09657130
    52  C          0.73962000       0.81274160       0.40342870
    53  Cl         0.34428700       0.79433500       0.96407600
    54  Cl         0.65571300       0.29433500       0.53592400
    55  Cl         0.65571300       0.20566500       0.03592400
    56  Cl         0.34428700       0.70566500       0.46407600
    57  N          0.95228000       0.53488850       0.62719880
    58  N          0.04772000       0.03488850       0.87280120
    59  N          0.04772000       0.46511150       0.37280120
    60  N          0.95228000       0.96511150       0.12719880
    61  H          0.86360000       0.50390000       0.62730000
    62  H          0.13640000       0.00390000       0.87270000
    63  H          0.13640000       0.49610000       0.37270000
    64  H          0.86360000      -0.00390000       0.12730000
    65  H          0.91740000       0.57250000       0.57270000
    66  H          0.08260000       0.07250000       0.92730000
    67  H          0.08260000       0.42750000       0.42730000
    68  H          0.91740000       0.92750000       0.07270000
    69  C          0.04482000       0.59764830       0.70753870
    70  C          0.95518000       0.09764830       0.79246130
    71  C          0.95518000       0.40235170       0.29246130
    72  C          0.04482000       0.90235170       0.20753870
    73  C          0.04533000       0.56177830       0.79691860
    74  C          0.95467000       0.06177830       0.70308140
    75  C          0.95467000       0.43822170       0.20308140
    76  C          0.04533000       0.93822170       0.29691860
    77  H         -0.01730000       0.49730000       0.80360000
    78  H          0.01730000      -0.00270000       0.69640000
    79  H          0.01730000       0.50270000       0.19640000
    80  H         -0.01730000       0.00270000       0.30360000
    81  C          0.13833000       0.62150820       0.87583870
    82  C          0.86167000       0.12150820       0.62416130
    83  C          0.86167000       0.37849180       0.12416130
    84  C          0.13833000       0.87849180       0.37583870
    85  H          0.13800000       0.59770000       0.93530000
    86  H          0.86200000       0.09770000       0.56470000
    87  H          0.86200000       0.40230000       0.06470000
    88  H          0.13800000       0.90230000       0.43530000
    89  C          0.23163000       0.71689830       0.86509870
    90  C          0.76837000       0.21689830       0.63490130
    91  C          0.76837000       0.28310170       0.13490130
    92  C          0.23163000       0.78310170       0.36509870
    93  C          0.23693000       0.75238820       0.77714860
    94  C          0.76307000       0.25238820       0.72285140
    95  C          0.76307000       0.24761180       0.22285140
    96  C          0.23693000       0.74761180       0.27714860
    97  H          0.30240000       0.81570000       0.77100000
    98  H          0.69760000       0.31570000       0.72900000
    99  H          0.69760000       0.18430000       0.22900000
   100  H          0.30240000       0.68430000       0.27100000
   101  C          0.14303000       0.69212830       0.69844860
   102  C          0.85697000       0.19212830       0.80155140
   103  C          0.85697000       0.30787170       0.30155140
   104  C          0.14303000       0.80787170       0.19844860
   105  H          0.14590000       0.71520000       0.63920000
   106  H          0.85410000       0.21520000       0.86080000
   107  H          0.85410000       0.28480000       0.36080000
   108  H          0.14590000       0.78480000       0.13920000
