data_ZOHWEA
_symmetry_space_group_name_H-M    'P1'
_symmetry_Int_Tables_number       1
loop_
_symmetry_equiv_pos_site_id
_symmetry_equiv_pos_as_xyz
1 x,y,z
_cell_length_a                   7.14418
_cell_length_b                   9.30271
_cell_length_c                   11.872613
_cell_angle_alpha                77.9665
_cell_angle_beta                 74.8895
_cell_angle_gamma                77.9795
loop_
_atom_site_label
_atom_site_type_symbol
_atom_site_fract_x
_atom_site_fract_y
_atom_site_fract_z
     1  C          0.34403000       0.34792000       0.01244170
     2  C          0.65597000       0.65208000       0.98755830
     3  C          0.23053000       0.40102000       0.11532170
     4  C          0.76947000       0.59898000       0.88467830
     5  C          0.13753000       0.54932000       0.11040170
     6  C          0.86247000       0.45068000       0.88959830
     7  C          0.15653000       0.64332000       0.00203190
     8  C          0.84347000       0.35668000      -0.00203190
     9  C          0.26723000       0.59152000       0.90008820
    10  C          0.73277000       0.40848000       0.09991180
    11  H          0.27920000       0.65550000       0.82800000
    12  H          0.72080000       0.34450000       0.17200000
    13  C          0.36063000       0.44452000       0.90477820
    14  C          0.63937000       0.55548000       0.09522180
    15  H          0.43470000       0.41030000       0.83580000
    16  H          0.56530000       0.58970000       0.16420000
    17  O          0.43302000       0.20375140       0.02337120
    18  O          0.56698000       0.79624860       0.97662880
    19  H          0.50630000       0.18760000       0.96000000
    20  H          0.49370000       0.81240000       0.04000000
    21  Cl         0.20849900       0.27996600       0.24730400
    22  Cl         0.79150100       0.72003400       0.75269600
    23  Cl         0.00063800       0.61395600       0.23798500
    24  Cl        -0.00063800       0.38604400       0.76201500
    25  Cl         0.04117800       0.82751500      -0.00705500
    26  Cl         0.95882200       0.17248500       0.00705500
    27  C          0.57767000       0.12182000       0.72918160
    28  C          0.42233000       0.87818000       0.27081840
    29  C          0.65007000       0.22382000       0.63179180
    30  C          0.34993000       0.77618000       0.36820820
    31  H          0.75570000       0.26830000       0.63090000
    32  H          0.24430000       0.73170000       0.36910000
    33  C          0.56256000       0.25752000       0.53649190
    34  C          0.43744000       0.74248000       0.46350810
    35  C          0.40316000       0.19543000       0.53512000
    36  C          0.59684000       0.80457000       0.46488000
    37  H          0.34480000       0.21990000       0.47070000
    38  H          0.65520000       0.78010000       0.52930000
    39  C          0.33447000       0.09543000       0.63372000
    40  C          0.66553000       0.90457000       0.36628000
    41  C          0.41777000       0.05692000       0.73044190
    42  C          0.58223000       0.94308000       0.26955810
    43  H          0.36840000      -0.01100000       0.79530000
    44  H          0.63160000       0.01100000       0.20470000
    45  N          0.66027000       0.08942000       0.82956160
    46  N          0.33973000       0.91058000       0.17043840
    47  Cl         0.66148870       0.37939800       0.41388500
    48  Cl         0.33851130       0.62060200       0.58611500
    49  Cl         0.13503100       0.01310900       0.63571800
    50  Cl         0.86496900       0.98689100       0.36428200
    51  H          0.77450000       0.10930000       0.81330000
    52  H          0.22550000       0.89070000       0.18670000
    53  H          0.65560000      -0.00130000       0.86120000
    54  H          0.34440000       0.00130000       0.13880000
