data_ZOHWIE
_symmetry_space_group_name_H-M    'P1'
_symmetry_Int_Tables_number       1
loop_
_symmetry_equiv_pos_site_id
_symmetry_equiv_pos_as_xyz
1 x,y,z
_cell_length_a                   7.20608
_cell_length_b                   9.25581
_cell_length_c                   11.320312
_cell_angle_alpha                99.6937
_cell_angle_beta                 99.6167
_cell_angle_gamma                101.3877
loop_
_atom_site_label
_atom_site_type_symbol
_atom_site_fract_x
_atom_site_fract_y
_atom_site_fract_z
     1  H          0.05930000       0.48820000       0.35141800
     2  H          0.94070000       0.51180000       0.64858200
     3  H          0.11830000       0.37020000       0.29931700
     4  H          0.88170000       0.62980000       0.70068300
     5  Cl         0.37051600       0.48964500       0.15315400
     6  Cl         0.62948400       0.51035500       0.84684600
     7  Cl         0.30744600       0.20678500       0.93877600
     8  Cl         0.69255400       0.79321500       0.06122400
     9  N          0.02843190       0.39459150       0.32117120
    10  N          0.97156810       0.60540850       0.67882880
    11  C          0.86402000       0.35684150       0.22471130
    12  C          0.13598000       0.64315850       0.77528870
    13  C          0.71802000       0.43430150       0.23094130
    14  C          0.28198000       0.56569850       0.76905870
    15  H          0.73390000       0.51620000       0.29490000
    16  H          0.26610000       0.48380000       0.70510000
    17  C          0.52282000       0.26698170       0.04680130
    18  C          0.47718000       0.73301830       0.95319870
    19  C          0.66962000       0.19171170       0.03919140
    20  C          0.33038000       0.80828830       0.96080860
    21  H          0.65380000       0.11060000       0.97460000
    22  H          0.34620000       0.88940000       0.02540000
    23  C          0.54932000       0.38996160       0.14236130
    24  C          0.45068000       0.61003840       0.85763870
    25  C          0.83952000       0.23600170       0.12683140
    26  C          0.16048000       0.76399830       0.87316860
    27  H          0.93780000       0.18520000       0.12060000
    28  H          0.06220000       0.81480000       0.87940000
    29  H          0.03630000       0.68080000       0.54220000
    30  H          0.96370000       0.31920000       0.45780000
    31  Cl         0.46298500       0.32531400       0.50451400
    32  Cl         0.53701500       0.67468600       0.49548600
    33  Cl         0.10518600       0.76504600       0.24189300
    34  Cl         0.89481400       0.23495400       0.75810700
    35  Cl         0.31723600       0.09853400       0.25146300
    36  Cl         0.68276400       0.90146600       0.74853700
    37  O          0.05066150       0.70199890       0.47493100
    38  O          0.94933850       0.29800110       0.52506900
    39  C          0.27860190       0.04084150       0.38408120
    40  C          0.72139810       0.95915850       0.61591880
    41  C          0.21323190       0.94854850       0.59749130
    42  C          0.78676810       0.05145150       0.40250870
    43  H          0.19180000       0.91840000       0.66930000
    44  H          0.80820000       0.08160000       0.33070000
    45  C          0.34224190       0.14147140       0.49635130
    46  C          0.65775810       0.85852860       0.50364870
    47  C          0.18280190       0.89293850       0.37928120
    48  C          0.81719810       0.10706150       0.62071880
    49  C          0.14761190       0.84593850       0.48612130
    50  C          0.85238810       0.15406150       0.51387870
    51  C          0.31022000       0.09525160       0.60257130
    52  C          0.68978000       0.90474840       0.39742870
    53  H          0.35380000       0.16270000       0.67760000
    54  H          0.64620000       0.83730000       0.32240000
