data_ZOJBOR
_symmetry_space_group_name_H-M    'P1'
_symmetry_Int_Tables_number       1
loop_
_symmetry_equiv_pos_site_id
_symmetry_equiv_pos_as_xyz
1 x,y,z
_cell_length_a                   10.86894
_cell_length_b                   12.40844
_cell_length_c                   18.01296
_cell_angle_alpha                99.0574
_cell_angle_beta                 91.6942
_cell_angle_gamma                104.8484
loop_
_atom_site_label
_atom_site_type_symbol
_atom_site_fract_x
_atom_site_fract_y
_atom_site_fract_z
     1  B          0.59426120       0.35404110       0.21376700
     2  B          0.40573880       0.64595890       0.78623300
     3  N          0.82035900       0.28646800       0.22941500
     4  N          0.17964100       0.71353200       0.77058500
     5  N          0.74749900       0.13359800       0.27600500
     6  N          0.25250100       0.86640200       0.72399500
     7  F          0.79930700       0.56027600       0.24264400
     8  F          0.20069300       0.43972400       0.75735600
     9  F          0.89279800       0.69983700       0.14903500
    10  F          0.10720200       0.30016300       0.85096500
    11  F          0.79310800       0.66019700       0.00347500
    12  F          0.20689200       0.33980300      -0.00347500
    13  F          0.60449800       0.46764700       0.95293600
    14  F          0.39550200       0.53235300       0.04706400
    15  F          0.50597700       0.32897600       0.04377400
    16  F          0.49402300       0.67102400       0.95622600
    17  F          0.44598800       0.51478700       0.20609400
    18  F          0.55401200       0.48521300       0.79390600
    19  F          0.40084800       0.66595700       0.31668600
    20  F          0.59915200       0.33404300       0.68331400
    21  F          0.49722900       0.68144800       0.46036600
    22  F          0.50277100       0.31855200       0.53963400
    23  F          0.64568900       0.54432800       0.48978500
    24  F          0.35431100       0.45567200       0.51021500
    25  F          0.69133700       0.39232700       0.38195400
    26  F          0.30866300       0.60767300       0.61804600
    27  F          0.32161700       0.32476700       0.27204400
    28  F          0.67838300       0.67523300       0.72795600
    29  F          0.11947700       0.16247800       0.21972500
    30  F          0.88052300       0.83752200       0.78027500
    31  F          0.12899700      -0.00682700       0.10631500
    32  F          0.87100300       0.00682700       0.89368500
    33  F          0.35628700      -0.00465600       0.04366400
    34  F          0.64371300       0.00465600       0.95633600
    35  F          0.56373600       0.15865600       0.09418400
    36  F          0.43626400       0.84134400       0.90581600
    37  C          0.85032110       0.19930100       0.25313600
    38  C          0.14967890       0.80069900       0.74686400
    39  H          0.93280000       0.18640000       0.25350000
    40  H          0.06720000       0.81360000       0.74650000
    41  C          0.68900110       0.27729100       0.23643600
    42  C          0.31099890       0.72270900       0.76356400
    43  C          0.64700110       0.18040100       0.26568700
    44  C          0.35299890       0.81959900       0.73431300
    45  H          0.56170000       0.14980000       0.27720000
    46  H          0.43830000       0.85020000       0.72280000
    47  C          0.92142110       0.37297100       0.20475700
    48  C          0.07857890       0.62702900       0.79524300
    49  C          0.00282120       0.45295110       0.26023700
    50  C         -0.00282120       0.54704890       0.73976300
    51  C          0.10116130       0.53327120       0.23574700
    52  C          0.89883870       0.46672880       0.76425300
    53  H          0.15850000       0.58890000       0.27180000
    54  H          0.84150000       0.41110000       0.72820000
    55  C          0.11632130       0.53299120       0.15976800
    56  C          0.88367870       0.46700880       0.84023200
    57  H          0.18190000       0.58990000       0.14410000
    58  H          0.81810000       0.41010000       0.85590000
    59  C          0.03628120       0.45015110       0.10640700
    60  C          0.96371880       0.54984890       0.89359300
    61  H          0.04820000       0.45080000       0.05440000
    62  H          0.95180000       0.54920000       0.94560000
    63  C          0.93851110       0.36582100       0.12738700
    64  C          0.06148890       0.63417900       0.87261300
    65  C         -0.00706880       0.45294110       0.34432700
    66  C          0.00706880       0.54705890       0.65567300
    67  H          0.91170000       0.39670000       0.35120000
    68  H          0.08830000       0.60330000       0.64880000
    69  C         -0.01087850       0.56864130       0.38753800
    70  C          0.01087850       0.43135870       0.61246200
    71  H          0.06900000       0.62490000       0.38280000
    72  H          0.93100000       0.37510000       0.61720000
    73  H          0.97870000       0.56380000       0.44090000
    74  H          0.02130000       0.43620000       0.55910000
    75  H          0.91720000       0.59130000       0.36660000
    76  H          0.08280000       0.40870000       0.63340000
    77  C          0.10399140       0.41499140       0.37652800
    78  C          0.89600860       0.58500860       0.62347200
    79  H          0.10370000       0.34010000       0.34920000
    80  H          0.89630000       0.65990000       0.65080000
    81  H          0.09440000       0.41120000       0.43000000
    82  H          0.90560000       0.58880000       0.57000000
    83  H          0.18480000       0.46940000       0.37090000
    84  H          0.81520000       0.53060000       0.62910000
    85  C          0.86299120       0.26565100       0.07006700
    86  C          0.13700880       0.73434900       0.92993300
    87  H          0.77600000       0.23910000       0.08810000
    88  H          0.22400000       0.76090000       0.91190000
    89  C          0.84704130       0.29297110       0.99097300
    90  C          0.15295870       0.70702890       0.00902700
    91  H          0.81560000       0.36080000      -0.00580000
    92  H          0.18440000       0.63920000       0.00580000
    93  H          0.78570000       0.22910000       0.95950000
    94  H          0.21430000       0.77090000       0.04050000
    95  H          0.92960000       0.30660000       0.96860000
    96  H          0.07040000       0.69340000       0.03140000
    97  C          0.92759140       0.16872110       0.06609800
    98  C          0.07240860       0.83127890       0.93390200
    99  H          0.01340000       0.19300000       0.04880000
   100  H         -0.01340000       0.80700000       0.95120000
   101  H          0.87700000       0.10290000       0.03070000
   102  H          0.12300000       0.89710000       0.96930000
   103  H          0.93360000       0.14830000       0.11620000
   104  H          0.06640000       0.85170000       0.88380000
   105  C          0.74331110       0.02746100       0.30134700
   106  C          0.25668890       0.97253900       0.69865300
   107  C          0.79375120       0.03175110       0.37475700
   108  C          0.20624880       0.96824890       0.62524300
   109  C          0.79122130       0.92799880       0.39620800
   110  C          0.20877870       0.07200120       0.60379200
   111  H          0.82360000       0.92640000       0.44550000
   112  H          0.17640000       0.07360000       0.55450000
   113  C          0.74228150       0.82733880       0.34687900
   114  C          0.25771850       0.17266120       0.65312100
   115  H          0.74290000       0.75780000       0.36250000
   116  H          0.25710000       0.24220000       0.63750000
   117  C          0.69268150       0.82651880       0.27543900
   118  C          0.30731850       0.17348120       0.72456100
   119  H          0.65840000       0.75630000       0.24280000
   120  H          0.34160000       0.24370000       0.75720000
   121  C          0.69208130       0.92738890       0.25029800
   122  C          0.30791870       0.07261110       0.74970200
   123  C          0.84732140       0.14335110       0.42844700
   124  C          0.15267860       0.85664890       0.57155300
   125  H          0.89170000       0.20000000       0.39760000
   126  H          0.10830000       0.80000000       0.60240000
   127  C          0.74163170       0.18700150       0.46457900
   128  C          0.25836830       0.81299850       0.53542100
   129  H          0.68210000       0.19520000       0.42520000
   130  H          0.31790000       0.80480000       0.57480000
   131  H          0.77840000       0.26070000       0.49650000
   132  H          0.22160000       0.73930000       0.50350000
   133  H          0.69590000       0.13340000       0.49540000
   134  H          0.30410000       0.86660000       0.50460000
   135  C          0.94624150       0.13676140       0.48907900
   136  C          0.05375850       0.86323860       0.51092100
   137  H         -0.01220000       0.21310000       0.51610000
   138  H          0.01220000       0.78690000       0.48390000
   139  H          0.01050000       0.10300000       0.46510000
   140  H         -0.01050000       0.89700000       0.53490000
   141  H          0.90350000       0.09000000       0.52470000
   142  H          0.09650000       0.91000000       0.47530000
   143  C          0.63970160       0.92495880       0.17054800
   144  C          0.36029840       0.07504120       0.82945200
   145  H          0.64970000       0.00510000       0.16360000
   146  H          0.35030000      -0.00510000       0.83640000
   147  C          0.49912000       0.86468000       0.15822130
   148  C          0.50088000       0.13532000       0.84177870
   149  H          0.48580000       0.78660000       0.16670000
   150  H          0.51420000       0.21340000       0.83330000
   151  H          0.46880000       0.86460000       0.10640000
   152  H          0.53120000       0.13540000       0.89360000
   153  H          0.45150000       0.90400000       0.19360000
   154  H          0.54850000       0.09600000       0.80640000
   155  C          0.71602000       0.87258810       0.11221100
   156  C          0.28398000       0.12741190       0.88778900
   157  H          0.70220000       0.79210000       0.11470000
   158  H          0.29780000       0.20790000       0.88530000
   159  H          0.80700000       0.91110000       0.12270000
   160  H          0.19300000       0.08890000       0.87730000
   161  H          0.68790000       0.88090000       0.06170000
   162  H          0.31210000       0.11910000       0.93830000
   163  C          0.65027110       0.43214100       0.14919700
   164  C          0.34972890       0.56785900       0.85080300
   165  C          0.74786120       0.53136110       0.17057700
   166  C          0.25213880       0.46863890       0.82942300
   167  C          0.79773130       0.60721110       0.12365800
   168  C          0.20226870       0.39278890       0.87634200
   169  C          0.74856130       0.58669110       0.04980800
   170  C          0.25143870       0.41330890       0.95019200
   171  C          0.65248130       0.49032110       0.02488700
   172  C          0.34751870       0.50967890       0.97511300
   173  C          0.60446120       0.41675100       0.07418700
   174  C          0.39553880       0.58324900       0.92581300
   175  C          0.57159110       0.44450100       0.28686700
   176  C          0.42840890       0.55549900       0.71313300
   177  C          0.49909120       0.51929110       0.27558800
   178  C          0.50090880       0.48070890       0.72441200
   179  C          0.47284130       0.59748110       0.33214900
   180  C          0.52715870       0.40251890       0.66785100
   181  C          0.52108140       0.60548120       0.40479900
   182  C          0.47891860       0.39451880       0.59520100
   183  C          0.59531130       0.53579120       0.41941800
   184  C          0.40468870       0.46420880       0.58058200
   185  C          0.61798120       0.45728110       0.36109700
   186  C          0.38201880       0.54271890       0.63890300
   187  C          0.45776110       0.25602100       0.18453700
   188  C          0.54223890       0.74397900       0.81546300
   189  C          0.33922120       0.24840110       0.21399700
   190  C          0.66077880       0.75159890       0.78600300
   191  C          0.23061120       0.16261120       0.18814700
   192  C          0.76938880       0.83738880       0.81185300
   193  C          0.23406120       0.07653110       0.13102700
   194  C          0.76593880       0.92346890       0.86897300
   195  C          0.34930120       0.07812110       0.10006700
   196  C          0.65069880       0.92187890       0.89993300
   197  C          0.45528110       0.16494100       0.12733700
   198  C          0.54471890       0.83505900       0.87266300
   199  C          0.19232170       0.94103850       0.31764900
   200  C          0.80767830       0.05896150       0.68235100
   201  C          0.30370190       0.91033840       0.33129110
   202  C          0.69629810       0.08966160       0.66870890
   203  H          0.31160000       0.83840000       0.30800000
   204  H          0.68840000       0.16160000       0.69200000
   205  C          0.40376190       0.98319810       0.37843120
   206  C          0.59623810       0.01680190       0.62156880
   207  H          0.47950000       0.96090000       0.38740000
   208  H          0.52050000       0.03910000       0.61260000
   209  C          0.39366190       0.08827190       0.41241120
   210  C          0.60633810       0.91172810       0.58758880
   211  H          0.46190000       0.13810000       0.44500000
   212  H          0.53810000       0.86190000       0.55500000
   213  C          0.28492000       0.11988170       0.39879110
   214  C          0.71508000       0.88011830       0.60120890
   215  H          0.27770000       0.19220000       0.42160000
   216  H          0.72230000       0.80780000       0.57840000
   217  C          0.18526190       0.04704160       0.35198100
   218  C          0.81473810       0.95295840       0.64801900
   219  H          0.11010000       0.07020000       0.34310000
   220  H          0.88990000       0.92980000       0.65690000
   221  C          0.08312000       0.86228000       0.26798130
   222  C          0.91688000       0.13772000       0.73201870
   223  H          0.04010000       0.80160000       0.29460000
   224  H          0.95990000       0.19840000       0.70540000
   225  H          0.11500000       0.82950000       0.22180000
   226  H          0.88500000       0.17050000       0.77820000
   227  H          0.02250000       0.90400000       0.25500000
   228  H          0.97750000       0.09600000       0.74500000
