data_ZOJPAR
_symmetry_space_group_name_H-M    'P1'
_symmetry_Int_Tables_number       1
loop_
_symmetry_equiv_pos_site_id
_symmetry_equiv_pos_as_xyz
1 x,y,z
_cell_length_a                   8.60995
_cell_length_b                   9.73253
_cell_length_c                   12.20986
_cell_angle_alpha                108.9724
_cell_angle_beta                 101.1124
_cell_angle_gamma                104.3154
loop_
_atom_site_label
_atom_site_type_symbol
_atom_site_fract_x
_atom_site_fract_y
_atom_site_fract_z
     1  C          0.04596000       0.21615000       0.31844000
     2  C          0.95404000       0.78385000       0.68156000
     3  H         -0.00790000       0.25620000       0.37380000
     4  H          0.00790000       0.74380000       0.62620000
     5  C          0.13816000       0.12365000       0.33945000
     6  C          0.86184000       0.87635000       0.66055000
     7  H          0.14470000       0.10110000       0.40830000
     8  H          0.85530000       0.89890000       0.59170000
     9  C          0.21906000       0.06565000       0.25885000
    10  C          0.78094000       0.93435000       0.74115000
    11  H          0.27840000       0.00180000       0.27230000
    12  H          0.72160000      -0.00180000       0.72770000
    13  C          0.21356000       0.10145000       0.15574000
    14  C          0.78644000       0.89855000       0.84426000
    15  C          0.29206000       0.04385000       0.06924000
    16  C          0.70794000       0.95615000       0.93076000
    17  H          0.35360000      -0.01960000       0.07960000
    18  H          0.64640000       0.01960000       0.92040000
    19  C          0.27836000       0.08105000       0.96896000
    20  C          0.72164000       0.91895000       0.03104000
    21  H          0.32870000       0.04030000       0.91120000
    22  H          0.67130000       0.95970000       0.08880000
    23  C          0.18936000       0.17935000       0.95296000
    24  C          0.81064000       0.82065000       0.04704000
    25  H          0.18400000       0.20540000       0.88590000
    26  H          0.81600000       0.79460000       0.11410000
    27  C          0.11056000       0.23705000       0.03514000
    28  C          0.88944000       0.76295000       0.96486000
    29  C          0.12015000       0.19695000       0.13674000
    30  C          0.87985000       0.80305000       0.86326000
    31  C         -0.00066000       0.42765000       0.12394000
    32  C          0.00066000       0.57235000       0.87606000
    33  H          0.92350000       0.47990000       0.10230000
    34  H          0.07650000       0.52010000       0.89770000
    35  H          0.10670000       0.50530000       0.17520000
    36  H          0.89330000       0.49470000       0.82480000
    37  C          0.93034000       0.33795000       0.19214000
    38  C          0.06966000       0.66205000       0.80786000
    39  C          0.79464000       0.33295000       0.22864000
    40  C          0.20536000       0.66705000       0.77136000
    41  H          0.76420000       0.26600000       0.26650000
    42  H          0.23580000       0.73400000       0.73350000
    43  I          0.64579600       0.46650300       0.20579300
    44  I          0.35420400       0.53349700       0.79420700
    45  N          0.03385000       0.24854000       0.21793000
    46  N          0.96615000       0.75146000       0.78207000
    47  O          0.02114000       0.32893000       0.01583000
    48  O         -0.02114000       0.67107000       0.98417000
    49  I          0.41583400       0.70685300       0.15375300
    50  I          0.58416600       0.29314700       0.84624700
    51  I          0.64511400       0.96417300       0.36655300
    52  I          0.35488600       0.03582700       0.63344700
    53  I          0.88032400       0.23235300       0.58326300
    54  I          0.11967600       0.76764700       0.41673700
    55  I          0.39552400       0.57862300       0.47375300
    56  I          0.60447600       0.42137700       0.52624700
