data_ZOLKOA
_symmetry_space_group_name_H-M    'P1'
_symmetry_Int_Tables_number       1
loop_
_symmetry_equiv_pos_site_id
_symmetry_equiv_pos_as_xyz
1 x,y,z
_cell_length_a                   12.6755
_cell_length_b                   12.7925
_cell_length_c                   12.8685
_cell_angle_alpha                97.443
_cell_angle_beta                 115.033
_cell_angle_gamma                105.403
loop_
_atom_site_label
_atom_site_type_symbol
_atom_site_fract_x
_atom_site_fract_y
_atom_site_fract_z
     1  Cl         0.19552000       0.62802000       0.59512000
     2  Cl         0.80448000       0.37198000       0.40488000
     3  Cl         0.42568000       0.18182000       0.79047000
     4  Cl         0.57432000       0.81818000       0.20953000
     5  Cl         0.50000000       0.50000000      -0.00000000
     6  P          0.91378000       0.10952000       0.95248000
     7  P          0.08622000       0.89048000       0.04752000
     8  P          0.08532000       0.32302000       0.13862000
     9  P          0.91468000       0.67698000       0.86138000
    10  O          0.93595000       0.03695000       0.86715000
    11  O          0.06405000       0.96305000       0.13285000
    12  O          0.81405000       0.15685000       0.89715000
    13  O          0.18595000       0.84315000       0.10285000
    14  O          0.88565000       0.04144000       0.03885000
    15  O          0.11435000       0.95856000       0.96115000
    16  O          0.04605000       0.20854000       0.03804000
    17  O          0.95395000       0.79146000       0.96196000
    18  O          0.22485000       0.37374000       0.17945000
    19  O          0.77515000       0.62626000       0.82055000
    20  O          0.01315000       0.39145000       0.07575000
    21  O         -0.01315000       0.60855000       0.92425000
    22  O          0.05655000       0.28775000       0.23505000
    23  O          0.94345000       0.71225000       0.76495000
    24  O          0.02815000       0.28625000       0.80655000
    25  O          0.97185000       0.71375000       0.19345000
    26  O          0.00945000       0.04675000       0.35055000
    27  O         -0.00945000       0.95325000       0.64945000
    28  N          0.83654000       0.20556000       0.23515000
    29  N          0.16346000       0.79444000       0.76485000
    30  N          0.70754000       0.28836000       0.96724000
    31  N          0.29246000       0.71164000       0.03276000
    32  N          0.85184000       0.38600000       0.82945000
    33  N          0.14816000       0.61400000       0.17055000
    34  N          0.30566000       0.30905000       0.01736000
    35  N          0.69434000       0.69095000       0.98264000
    36  N          0.40166000       0.29306000       0.28696000
    37  N          0.59834000       0.70694000       0.71304000
    38  N          0.24696000       0.04066000       0.36336000
    39  N          0.75304000       0.95934000       0.63664000
    40  C          0.82422000       0.09837000       0.26887000
    41  C          0.17578000       0.90163000       0.73113000
    42  C          0.72402000       0.19408000       0.12468000
    43  C          0.27598000       0.80592000       0.87532000
    44  C          0.73841000       0.30498000       0.09458000
    45  C          0.26159000       0.69502000       0.90542000
    46  C          0.72393000       0.39507000       0.93013000
    47  C          0.27607000       0.60493000       0.06987000
    48  C          0.72293000       0.37267000       0.81103000
    49  C          0.27707000       0.62733000       0.18897000
    50  C          0.85042000       0.34538000       0.71463000
    51  C          0.14958000       0.65462000       0.28537000
    52  C         -0.01958000       0.35598000       0.74003000
    53  C          0.01958000       0.64402000       0.25997000
    54  C          0.06328000       0.41418000       0.71173000
    55  C          0.93672000       0.58582000       0.28827000
    56  C          0.17098000       0.38478000       0.76323000
    57  C          0.82902000       0.61522000       0.23677000
    58  C          0.14528000       0.30768000       0.81943000
    59  C          0.85472000       0.69232000       0.18057000
    60  C          0.21348000       0.24168000       0.88873000
    61  C          0.78652000       0.75832000       0.11127000
    62  C          0.38338000       0.24568000       0.08317000
    63  C          0.61662000       0.75432000       0.91683000
    64  C          0.46838000       0.30768000       0.21418000
    65  C          0.53162000       0.69232000       0.78582000
    66  C          0.34648000       0.17307000       0.28178000
    67  C          0.65352000       0.82693000       0.71822000
    68  C          0.30518000       0.16387000       0.37697000
    69  C          0.69482000       0.83613000       0.62303000
    70  C          0.20598000       0.01788000       0.45548000
    71  C          0.79402000       0.98212000       0.54452000
    72  C          0.11888000       0.07578000       0.45598000
    73  C          0.88112000       0.92422000       0.54402000
    74  C          0.12238000       0.15287000       0.53987000
    75  C          0.87762000       0.84713000       0.46013000
    76  C          0.01009000       0.17328000       0.48679000
    77  C         -0.01009000       0.82672000       0.51321000
    78  C          0.94572000       0.10917000       0.37468000
    79  C          0.05428000       0.89083000       0.62532000
    80  H          0.90334000       0.22656000       0.22496000
    81  H          0.09666000       0.77344000       0.77504000
    82  H          0.84674000       0.25936000       0.29526000
    83  H          0.15326000       0.74064000       0.70474000
    84  H          0.62754000       0.24226000       0.92204000
    85  H          0.37246000       0.75774000       0.07796000
    86  H          0.75534000       0.25406000       0.95264000
    87  H          0.24466000       0.74594000       0.04736000
    88  H          0.88254000       0.34236000       0.87834000
    89  H          0.11746000       0.65764000       0.12166000
    90  H          0.90184000       0.45606000       0.86464000
    91  H          0.09816000       0.54394000       0.13536000
    92  H          0.26316000       0.32476000       0.05476000
    93  H          0.73684000       0.67524000       0.94524000
    94  H          0.35506000       0.37496000       0.01876000
    95  H          0.64494000       0.62504000       0.98124000
    96  H          0.34106000       0.32226000       0.26066000
    97  H          0.65894000       0.67774000       0.73934000
    98  H          0.45596000       0.33236000       0.36356000
    99  H          0.54404000       0.66764000       0.63644000
   100  H          0.30296000       0.00746000       0.36986000
   101  H          0.69704000      -0.00746000       0.63014000
   102  H          0.18106000       0.00796000       0.28966000
   103  H          0.81894000      -0.00796000       0.71034000
   104  H          0.80382000       0.03877000       0.20247000
   105  H          0.19618000       0.96123000       0.79753000
   106  H          0.75822000       0.07987000       0.28937000
   107  H          0.24178000       0.92013000       0.71063000
   108  H          0.65162000       0.17128000       0.13498000
   109  H          0.34838000       0.82872000       0.86502000
   110  H          0.71312000       0.13828000       0.06008000
   111  H          0.28688000       0.86172000       0.93992000
   112  H          0.68571000       0.33888000       0.11048000
   113  H          0.31429000       0.66112000       0.88952000
   114  H          0.82351000       0.35568000       0.14368000
   115  H          0.17649000       0.64432000       0.85632000
   116  H          0.80142000       0.45177000      -0.01057000
   117  H          0.19858000       0.54823000       0.01057000
   118  H          0.65752000       0.42137000       0.92313000
   119  H          0.34248000       0.57863000       0.07687000
   120  H          0.66613000       0.29747000       0.76373000
   121  H          0.33387000       0.70253000       0.23627000
   122  H          0.69433000       0.42447000       0.76893000
   123  H          0.30567000       0.57553000       0.23107000
   124  H          0.82092000       0.39068000       0.66313000
   125  H          0.17908000       0.60932000       0.33687000
   126  H          0.79572000       0.26828000       0.67553000
   127  H          0.20428000       0.73172000       0.32447000
   128  H          0.05189000       0.46658000       0.66462000
   129  H          0.94811000       0.53342000       0.33538000
   130  H          0.24678000       0.41418000       0.75903000
   131  H          0.75322000       0.58582000       0.24097000
   132  H          0.15488000       0.17578000       0.88783000
   133  H          0.84512000       0.82422000       0.11217000
   134  H          0.25798000       0.21738000       0.85203000
   135  H          0.74202000       0.78262000       0.14797000
   136  H          0.43328000       0.23448000       0.04687000
   137  H          0.56672000       0.76552000       0.95313000
   138  H          0.32978000       0.17248000       0.07507000
   139  H          0.67022000       0.82752000       0.92493000
   140  H          0.53588000       0.27998000       0.24468000
   141  H          0.46412000       0.72002000       0.75532000
   142  H          0.50378000       0.38668000       0.22308000
   143  H          0.49622000       0.61332000       0.77692000
   144  H          0.40628000       0.13687000       0.29318000
   145  H          0.59372000       0.86313000       0.70682000
   146  H          0.27598000       0.13427000       0.20348000
   147  H          0.72402000       0.86573000       0.79652000
   148  H          0.37488000       0.20007000       0.45517000
   149  H          0.62512000       0.79993000       0.54483000
   150  H          0.24498000       0.19967000       0.36587000
   151  H          0.75502000       0.80033000       0.63413000
   152  H          0.27738000       0.04278000       0.53288000
   153  H          0.72262000       0.95722000       0.46712000
   154  H          0.16508000       0.93782000       0.43798000
   155  H          0.83492000       0.06218000       0.56202000
   156  H          0.18838000       0.18698000       0.62038000
   157  H          0.81162000       0.81302000       0.37962000
   158  H         -0.01589000       0.22398000       0.52379000
   159  H          0.01589000       0.77602000       0.47621000
   160  O          0.23455000       0.42095000       0.46655000
   161  O          0.76545000       0.57905000       0.53345000
   162  H          0.20325000       0.43215000       0.39785000
   163  H          0.79675000       0.56785000       0.60215000
   164  H          0.19765000       0.47515000       0.51675000
   165  H          0.80235000       0.52485000       0.48325000
   166  O          0.57335000       0.40296000       0.52585000
   167  O          0.42665000       0.59704000       0.47415000
   168  O          0.43994000       0.39476000       0.65534000
   169  O          0.56006000       0.60524000       0.34466000
   170  H          0.38534000       0.34556000       0.66314000
   171  H          0.61466000       0.65444000       0.33686000
   172  H          0.44354000       0.46016000       0.68334000
   173  H          0.55646000       0.53984000       0.31666000
   174  O          0.53499000       0.98202000       0.83669000
   175  O          0.46501000       0.01798000       0.16331000
   176  H          0.49859000       0.91862000       0.84119000
   177  H          0.50141000       0.08138000       0.15881000
   178  H          0.51219000       0.03198000       0.86179000
   179  H          0.48781000       0.96802000       0.13821000
   180  O          0.34631200       0.85121000       0.59041200
   181  O          0.65368800       0.14879000       0.40958800
   182  H          0.32561200       0.79101000       0.53941200
   183  H          0.67438800       0.20899000       0.46058800
   184  H          0.42511200       0.88571000       0.62381200
   185  H          0.57488800       0.11429000       0.37618800
   186  O          0.42915000       0.91666000       0.40305000
   187  O          0.57085000       0.08334000       0.59695000
   188  H          0.47525000       0.97096000       0.46635000
   189  H          0.52475000       0.02904000       0.53365000
   190  H          0.38255000       0.91506000       0.33185000
   191  H          0.61745000       0.08494000       0.66815000
