data_ZOMNOE
_symmetry_space_group_name_H-M    'P1'
_symmetry_Int_Tables_number       1
loop_
_symmetry_equiv_pos_site_id
_symmetry_equiv_pos_as_xyz
1 x,y,z
_cell_length_a                   15.3834
_cell_length_b                   8.5302
_cell_length_c                   18.6363
_cell_angle_alpha                90.0
_cell_angle_beta                 95.242
_cell_angle_gamma                90.0
loop_
_atom_site_label
_atom_site_type_symbol
_atom_site_fract_x
_atom_site_fract_y
_atom_site_fract_z
     1  Br         0.14819100       0.15132000       0.06813900
     2  Br         0.35180900       0.15132000       0.43186100
     3  Br         0.85180900       0.84868000       0.93186100
     4  Br         0.64819100       0.84868000       0.56813900
     5  C          0.08111000       0.21881700       0.98911000
     6  C          0.41889000       0.21881700       0.51089000
     7  C          0.91889000       0.78118300       0.01089000
     8  C          0.58111000       0.78118300       0.48911000
     9  C          0.03391100       0.26371700       0.94021000
    10  C          0.46608900       0.26371700       0.55979000
    11  C          0.96608900       0.73628300       0.05979000
    12  C          0.53391100       0.73628300       0.44021000
    13  C          0.97721000       0.32501800       0.88082000
    14  C          0.52279000       0.32501800       0.61918000
    15  C          0.02279000       0.67498200       0.11918000
    16  C          0.47721000       0.67498200       0.38082000
    17  C          0.92931000       0.22431800       0.83222000
    18  C          0.57069000       0.22431800       0.66778000
    19  C          0.07069000       0.77568200       0.16778000
    20  C          0.42931000       0.77568200       0.33222000
    21  C          0.87921000       0.28341900       0.77402000
    22  C          0.62079000       0.28341900       0.72598000
    23  C          0.12079000       0.71658100       0.22598000
    24  C          0.37921000       0.71658100       0.27402000
    25  C          0.87359000       0.44332200       0.76552000
    26  C          0.62641000       0.44332200       0.73448000
    27  C          0.12641000       0.55667800       0.23448000
    28  C          0.37359000       0.55667800       0.26552000
    29  C          0.91958800       0.54552000       0.81071000
    30  C          0.58041200       0.54552000       0.68929000
    31  C          0.08041200       0.45448000       0.18929000
    32  C          0.41958800       0.45448000       0.31071000
    33  C          0.96909000       0.48501800       0.87172000
    34  C          0.53091000       0.48501800       0.62828000
    35  C          0.03091000       0.51498200       0.12828000
    36  C          0.46909000       0.51498200       0.37172000
    37  H          0.93171000       0.11541800       0.83982000
    38  H          0.56829000       0.11541800       0.66018000
    39  H          0.06829000       0.88458200       0.16018000
    40  H          0.43171000       0.88458200       0.33982000
    41  H          0.84911000       0.21581900       0.74042000
    42  H          0.65089000       0.21581900       0.75958000
    43  H          0.15089000       0.78418100       0.25958000
    44  H          0.34911000       0.78418100       0.24042000
    45  H          0.83659000       0.48382200       0.72702000
    46  H          0.66341000       0.48382200       0.77298000
    47  H          0.16341000       0.51617800       0.27298000
    48  H          0.33659000       0.51617800       0.22702000
    49  H          0.91838800       0.65382000       0.80121000
    50  H          0.58161200       0.65382000       0.69879000
    51  H          0.08161200       0.34618000       0.19879000
    52  H          0.41838800       0.34618000       0.30121000
    53  H         -0.00361000       0.55351800       0.90632000
    54  H          0.50361000       0.55351800       0.59368000
    55  H          0.00361000       0.44648200       0.09368000
    56  H          0.49639000       0.44648200       0.40632000
    57  Br         0.40517900       0.16192000       0.15529700
    58  Br         0.09482100       0.16192000       0.34470300
    59  Br         0.59482100       0.83808000       0.84470300
    60  Br         0.90517900       0.83808000       0.65529700
    61  C          0.48979000       0.21181500       0.09687000
    62  C          0.01021000       0.21181500       0.40313000
    63  C          0.51021000       0.78818500       0.90313000
    64  C          0.98979000       0.78818500       0.59687000
    65  C          0.54321000       0.24281700       0.05737000
    66  C          0.95679000       0.24281700       0.44263000
    67  C          0.45679000       0.75718300       0.94263000
    68  C          0.04321000       0.75718300       0.55737000
    69  C          0.60718000       0.28871600       0.00937000
    70  C          0.89282000       0.28871600       0.49063000
    71  C          0.39282000       0.71128400       0.99063000
    72  C          0.10718000       0.71128400       0.50937000
    73  C          0.62539000       0.44521700       0.00197000
    74  C          0.87461000       0.44521700       0.49803000
    75  C          0.37461000       0.55478300      -0.00197000
    76  C          0.12539000       0.55478300       0.50197000
    77  C          0.68551000       0.49271700       0.95702000
    78  C          0.81449000       0.49271700       0.54298000
    79  C          0.31449000       0.50728300       0.04298000
    80  C          0.18551000       0.50728300       0.45702000
    81  C          0.72609000       0.38272000       0.91912000
    82  C          0.77391000       0.38272000       0.58088000
    83  C          0.27391000       0.61728000       0.08088000
    84  C          0.22609000       0.61728000       0.41912000
    85  C          0.70811000       0.22491900       0.92462000
    86  C          0.79189000       0.22491900       0.57538000
    87  C          0.29189000       0.77508100       0.07538000
    88  C          0.20811000       0.77508100       0.42462000
    89  C          0.64809000       0.17761600       0.97053000
    90  C          0.85191000       0.17761600       0.52947000
    91  C          0.35191000       0.82238400       0.02947000
    92  C          0.14809000       0.82238400       0.47053000
    93  H          0.59609000       0.52011700       0.02797000
    94  H          0.90391000       0.52011700       0.47203000
    95  H          0.40391000       0.47988300       0.97203000
    96  H          0.09609000       0.47988300       0.52797000
    97  H          0.69871000       0.59961700       0.95252000
    98  H          0.80129000       0.59961700       0.54748000
    99  H          0.30129000       0.40038300       0.04748000
   100  H          0.19871000       0.40038300       0.45252000
   101  H          0.76759000       0.41521000       0.88822000
   102  H          0.73241000       0.41521000       0.61178000
   103  H          0.23241000       0.58479000       0.11178000
   104  H          0.26759000       0.58479000       0.38822000
   105  H          0.73641000       0.15101900       0.89742000
   106  H          0.76359000       0.15101900       0.60258000
   107  H          0.26359000       0.84898100       0.10258000
   108  H          0.23641000       0.84898100       0.39742000
   109  H          0.63519000       0.07071600       0.97543000
   110  H          0.86481000       0.07071600       0.52457000
   111  H          0.36481000       0.92928400       0.02457000
   112  H          0.13519000       0.92928400       0.47543000
   113  Br         0.25000000       0.09353000       0.25000000
   114  Br         0.75000000       0.90647000       0.75000000
   115  P          0.75000000       0.47004000       0.25000000
   116  P          0.25000000       0.52996000       0.75000000
   117  C          0.68678000       0.34228400       0.30197000
   118  C          0.81322000       0.34228400       0.19803000
   119  C          0.31322000       0.65771600       0.69803000
   120  C          0.18678000       0.65771600       0.80197000
   121  C          0.64141000       0.22158200       0.26419000
   122  C          0.85859000       0.22158200       0.23581000
   123  C          0.35859000       0.77841800       0.73581000
   124  C          0.14141000       0.77841800       0.76419000
   125  C          0.59541100       0.11107900       0.29991100
   126  C          0.90458900       0.11107900       0.20008900
   127  C          0.40458900       0.88892100       0.70008900
   128  C          0.09541100       0.88892100       0.79991100
   129  C          0.59851000       0.12398100       0.37291200
   130  C          0.90149000       0.12398100       0.12708800
   131  C          0.40149000       0.87601900       0.62708800
   132  C          0.09851000       0.87601900       0.87291200
   133  C          0.64261100       0.23997800       0.41248000
   134  C          0.85738900       0.23997800       0.08752000
   135  C          0.35738900       0.76002200       0.58752000
   136  C          0.14261100       0.76002200       0.91248000
   137  C          0.68869000       0.35038300       0.37428000
   138  C          0.81131000       0.35038300       0.12572000
   139  C          0.31131000       0.64961700       0.62572000
   140  C          0.18869000       0.64961700       0.87428000
   141  C          0.68147000       0.59608600       0.19276000
   142  C          0.81853000       0.59608600       0.30724000
   143  C          0.31853000       0.40391400       0.80724000
   144  C          0.18147000       0.40391400       0.69276000
   145  C          0.59228000       0.59428300       0.18897000
   146  C          0.90772000       0.59428300       0.31103000
   147  C          0.40772000       0.40571700       0.81103000
   148  C          0.09228000       0.40571700       0.68897000
   149  C          0.54449000       0.70648200       0.14787000
   150  C          0.95551000       0.70648200       0.35213000
   151  C          0.45551000       0.29351800       0.85213000
   152  C          0.04449000       0.29351800       0.64787000
   153  C          0.58281100       0.81908300       0.11207000
   154  C          0.91718900       0.81908300       0.38793000
   155  C          0.41718900       0.18091700       0.88793000
   156  C          0.08281100       0.18091700       0.61207000
   157  C          0.67471100       0.81998400       0.11758000
   158  C          0.82528900       0.81998400       0.38242000
   159  C          0.32528900       0.18001600       0.88242000
   160  C          0.17471100       0.18001600       0.61758000
   161  C          0.72469000       0.71198300       0.15547000
   162  C          0.77531000       0.71198300       0.34453000
   163  C          0.27531000       0.28801700       0.84453000
   164  C          0.22469000       0.28801700       0.65547000
   165  H          0.64211000       0.21518200       0.21389000
   166  H          0.85789000       0.21518200       0.28611000
   167  H          0.35789000       0.78481800       0.78611000
   168  H          0.14211000       0.78481800       0.71389000
   169  H          0.56341100       0.03087900       0.27491100
   170  H          0.93658900       0.03087900       0.22508900
   171  H          0.43658900       0.96912100       0.72508900
   172  H          0.06341100       0.96912100       0.77491100
   173  H          0.56861000       0.04848100       0.39801200
   174  H          0.93139000       0.04848100       0.10198800
   175  H          0.43139000       0.95151900       0.60198800
   176  H          0.06861000       0.95151900       0.89801200
   177  H          0.64211100       0.24547800       0.46288000
   178  H          0.85788900       0.24547800       0.03712000
   179  H          0.35788900       0.75452200       0.53712000
   180  H          0.14211100       0.75452200       0.96288000
   181  H          0.72079000       0.43008300       0.39938000
   182  H          0.77921000       0.43008300       0.10062000
   183  H          0.27921000       0.56991700       0.60062000
   184  H          0.22079000       0.56991700       0.89938000
   185  H          0.56329000       0.51748300       0.21397000
   186  H          0.93671000       0.51748300       0.28603000
   187  H          0.43671000       0.48251700       0.78603000
   188  H          0.06329000       0.48251700       0.71397000
   189  H          0.48319000       0.70288200       0.14517000
   190  H          0.01681000       0.70288200       0.35483000
   191  H          0.51681000       0.29711800       0.85483000
   192  H          0.98319000       0.29711800       0.64517000
   193  H          0.54991100       0.89418300       0.08437000
   194  H          0.95008900       0.89418300       0.41563000
   195  H          0.45008900       0.10581700       0.91563000
   196  H          0.04991100       0.10581700       0.58437000
   197  H          0.70301100       0.89958400       0.09368000
   198  H          0.79698900       0.89958400       0.40632000
   199  H          0.29698900       0.10041600       0.90632000
   200  H          0.20301100       0.10041600       0.59368000
   201  H          0.78589000       0.71438300       0.15687000
   202  H          0.71411000       0.71438300       0.34313000
   203  H          0.21411000       0.28561700       0.84313000
   204  H          0.28589000       0.28561700       0.65687000
