data_ZOMNIY
_symmetry_space_group_name_H-M    'P1'
_symmetry_Int_Tables_number       1
loop_
_symmetry_equiv_pos_site_id
_symmetry_equiv_pos_as_xyz
1 x,y,z
_cell_length_a                   17.021
_cell_length_b                   17.021
_cell_length_c                   9.8811
_cell_angle_alpha                90.0
_cell_angle_beta                 90.0
_cell_angle_gamma                90.0
loop_
_atom_site_label
_atom_site_type_symbol
_atom_site_fract_x
_atom_site_fract_y
_atom_site_fract_z
     1  I          0.07841100       0.14312100       0.13809300
     2  I          0.35687900       0.07841100       0.13809300
     3  I          0.42158900       0.35687900       0.13809300
     4  I          0.14312100       0.42158900       0.13809300
     5  I          0.92158900       0.85687900       0.86190700
     6  I          0.64312100       0.92158900       0.86190700
     7  I          0.57841100       0.64312100       0.86190700
     8  I          0.85687900       0.57841100       0.86190700
     9  C          0.98558000       0.07812000       0.20554000
    10  C          0.42188000       0.98558000       0.20554000
    11  C          0.51442000       0.42188000       0.20554000
    12  C          0.07812000       0.51442000       0.20554000
    13  C          0.01442000       0.92188000       0.79446000
    14  C          0.57812000       0.01442000       0.79446000
    15  C          0.48558000       0.57812000       0.79446000
    16  C          0.92188000       0.48558000       0.79446000
    17  C          0.93358000       0.03822000       0.25144000
    18  C          0.46178000       0.93358000       0.25144000
    19  C          0.56642000       0.46178000       0.25144000
    20  C          0.03822000       0.56642000       0.25144000
    21  C          0.06642000       0.96178000       0.74856000
    22  C          0.53822000       0.06642000       0.74856000
    23  C          0.43358000       0.53822000       0.74856000
    24  C          0.96178000       0.43358000       0.74856000
    25  C          0.87078000      -0.00802000       0.31314000
    26  C          0.50802000       0.87078000       0.31314000
    27  C          0.62922000       0.50802000       0.31314000
    28  C         -0.00802000       0.62922000       0.31314000
    29  C          0.12922000       0.00802000       0.68686000
    30  C          0.49198000       0.12922000       0.68686000
    31  C          0.37078000       0.49198000       0.68686000
    32  C          0.00802000       0.37078000       0.68686000
    33  C          0.86228000       0.98528000       0.46794000
    34  C          0.51472000       0.86228000       0.46794000
    35  C          0.63772000       0.51472000       0.46794000
    36  C          0.98528000       0.63772000       0.46794000
    37  C          0.13772000       0.01472000       0.53206000
    38  C          0.48528000       0.13772000       0.53206000
    39  C          0.36228000       0.48528000       0.53206000
    40  C          0.01472000       0.36228000       0.53206000
    41  C          0.80108000       0.94308000       0.52794000
    42  C          0.55692000       0.80108000       0.52794000
    43  C          0.69892000       0.55692000       0.52794000
    44  C          0.94308000       0.69892000       0.52794000
    45  C          0.19892000       0.05692000       0.47206000
    46  C          0.44308000       0.19892000       0.47206000
    47  C          0.30108000       0.44308000       0.47206000
    48  C          0.05692000       0.30108000       0.47206000
    49  C          0.74908000       0.90508000       0.43515000
    50  C          0.59492000       0.74908000       0.43515000
    51  C          0.75092000       0.59492000       0.43515000
    52  C          0.90508000       0.75092000       0.43515000
    53  C          0.25092000       0.09492000       0.56485000
    54  C          0.40508000       0.25092000       0.56485000
    55  C          0.24908000       0.40508000       0.56485000
    56  C          0.09492000       0.24908000       0.56485000
    57  C          0.75738000       0.90958000       0.28185000
    58  C          0.59042000       0.75738000       0.28185000
    59  C          0.74262000       0.59042000       0.28185000
    60  C          0.90958000       0.74262000       0.28185000
    61  C          0.24262000       0.09042000       0.71815000
    62  C          0.40958000       0.24262000       0.71815000
    63  C          0.25738000       0.40958000       0.71815000
    64  C          0.09042000       0.25738000       0.71815000
    65  C          0.81728000       0.95308000       0.22064000
    66  C          0.54692000       0.81728000       0.22064000
    67  C          0.68272000       0.54692000       0.22064000
    68  C          0.95308000       0.68272000       0.22064000
    69  C          0.18272000       0.04692000       0.77936000
    70  C          0.45308000       0.18272000       0.77936000
    71  C          0.31728000       0.45308000       0.77936000
    72  C          0.04692000       0.31728000       0.77936000
    73  H          0.89968000       0.01062000       0.52434000
    74  H          0.48938000       0.89968000       0.52434000
    75  H          0.60032000       0.48938000       0.52434000
    76  H          0.01062000       0.60032000       0.52434000
    77  H          0.10032000       0.98938000       0.47566000
    78  H          0.51062000       0.10032000       0.47566000
    79  H          0.39968000       0.51062000       0.47566000
    80  H          0.98938000       0.39968000       0.47566000
    81  H          0.79448000       0.93988000       0.62324000
    82  H          0.56012000       0.79448000       0.62324000
    83  H          0.70552000       0.56012000       0.62324000
    84  H          0.93988000       0.70552000       0.62324000
    85  H          0.20552000       0.06012000       0.37676000
    86  H          0.43988000       0.20552000       0.37676000
    87  H          0.29448000       0.43988000       0.37676000
    88  H          0.06012000       0.29448000       0.37676000
    89  H          0.70688000       0.87528000       0.47115000
    90  H          0.62472000       0.70688000       0.47115000
    91  H          0.79312000       0.62472000       0.47115000
    92  H          0.87528000       0.79312000       0.47115000
    93  H          0.29312000       0.12472000       0.52885000
    94  H          0.37528000       0.29312000       0.52885000
    95  H          0.20688000       0.37528000       0.52885000
    96  H          0.12472000       0.20688000       0.52885000
    97  H          0.72098000       0.88198000       0.22655000
    98  H          0.61802000       0.72098000       0.22655000
    99  H          0.77902000       0.61802000       0.22655000
   100  H          0.88198000       0.77902000       0.22655000
   101  H          0.27902000       0.11802000       0.77345000
   102  H          0.38198000       0.27902000       0.77345000
   103  H          0.22098000       0.38198000       0.77345000
   104  H          0.11802000       0.22098000       0.77345000
   105  H          0.82258000       0.95698000       0.12514000
   106  H          0.54302000       0.82258000       0.12514000
   107  H          0.67742000       0.54302000       0.12514000
   108  H          0.95698000       0.67742000       0.12514000
   109  H          0.17742000       0.04302000       0.87486000
   110  H          0.45698000       0.17742000       0.87486000
   111  H          0.32258000       0.45698000       0.87486000
   112  H          0.04302000       0.32258000       0.87486000
   113  P          0.25000000       0.75000000       0.50000000
   114  P          0.75000000       0.25000000       0.50000000
   115  C          0.19692000       0.81382000       0.37674000
   116  C          0.68618000       0.19692000       0.37674000
   117  C          0.30308000       0.68618000       0.37674000
   118  C          0.81382000       0.30308000       0.37674000
   119  C          0.80308000       0.18618000       0.62326000
   120  C          0.31382000       0.80308000       0.62326000
   121  C          0.69692000       0.31382000       0.62326000
   122  C          0.18618000       0.69692000       0.62326000
   123  C          0.23832000       0.85342000       0.26584000
   124  C          0.64658000       0.23832000       0.26584000
   125  C          0.26168000       0.64658000       0.26584000
   126  C          0.85342000       0.26168000       0.26584000
   127  C          0.76168000       0.14658000       0.73416000
   128  C          0.35342000       0.76168000       0.73416000
   129  C          0.73832000       0.35342000       0.73416000
   130  C          0.14658000       0.73832000       0.73416000
   131  C          0.19953000       0.89703000       0.15925000
   132  C          0.60297000       0.19953000       0.15925000
   133  C          0.30047000       0.60297000       0.15925000
   134  C          0.89703000       0.30047000       0.15925000
   135  C          0.80047000       0.10297000       0.84075000
   136  C          0.39703000       0.80047000       0.84075000
   137  C          0.69953000       0.39703000       0.84075000
   138  C          0.10297000       0.69953000       0.84075000
   139  C          0.11833000       0.90202000       0.16275000
   140  C          0.59798000       0.11833000       0.16275000
   141  C          0.38167000       0.59798000       0.16275000
   142  C          0.90202000       0.38167000       0.16275000
   143  C          0.88167000       0.09798000       0.83725000
   144  C          0.40202000       0.88167000       0.83725000
   145  C          0.61833000       0.40202000       0.83725000
   146  C          0.09798000       0.61833000       0.83725000
   147  C          0.07702000       0.86362000       0.27165000
   148  C          0.63638000       0.07702000       0.27165000
   149  C          0.42298000       0.63638000       0.27165000
   150  C          0.86362000       0.42298000       0.27165000
   151  C          0.92298000       0.13638000       0.72835000
   152  C          0.36362000       0.92298000       0.72835000
   153  C          0.57702000       0.36362000       0.72835000
   154  C          0.13638000       0.57702000       0.72835000
   155  C          0.11522000       0.81882000       0.37894000
   156  C          0.68118000       0.11522000       0.37894000
   157  C          0.38478000       0.68118000       0.37894000
   158  C          0.81882000       0.38478000       0.37894000
   159  C          0.88478000       0.18118000       0.62106000
   160  C          0.31882000       0.88478000       0.62106000
   161  C          0.61522000       0.31882000       0.62106000
   162  C          0.18118000       0.61522000       0.62106000
   163  H          0.29402000       0.85032000       0.26394000
   164  H          0.64968000       0.29402000       0.26394000
   165  H          0.20598000       0.64968000       0.26394000
   166  H          0.85032000       0.20598000       0.26394000
   167  H          0.70598000       0.14968000       0.73606000
   168  H          0.35032000       0.70598000       0.73606000
   169  H          0.79402000       0.35032000       0.73606000
   170  H          0.14968000       0.79402000       0.73606000
   171  H          0.22883000       0.92133000       0.08905000
   172  H          0.57867000       0.22883000       0.08905000
   173  H          0.27117000       0.57867000       0.08905000
   174  H          0.92133000       0.27117000       0.08905000
   175  H          0.77117000       0.07867000       0.91095000
   176  H          0.42133000       0.77117000       0.91095000
   177  H          0.72883000       0.42133000       0.91095000
   178  H          0.07867000       0.72883000       0.91095000
   179  H          0.09043000       0.93022000       0.09495000
   180  H          0.56978000       0.09043000       0.09495000
   181  H          0.40957000       0.56978000       0.09495000
   182  H          0.93022000       0.40957000       0.09495000
   183  H          0.90957000       0.06978000       0.90505000
   184  H          0.43022000       0.90957000       0.90505000
   185  H          0.59043000       0.43022000       0.90505000
   186  H          0.06978000       0.59043000       0.90505000
   187  H          0.02142000       0.86772000       0.27355000
   188  H          0.63228000       0.02142000       0.27355000
   189  H          0.47858000       0.63228000       0.27355000
   190  H          0.86772000       0.47858000       0.27355000
   191  H          0.97858000       0.13228000       0.72645000
   192  H          0.36772000       0.97858000       0.72645000
   193  H          0.52142000       0.36772000       0.72645000
   194  H          0.13228000       0.52142000       0.72645000
   195  H          0.08532000       0.79392000       0.44804000
   196  H          0.70608000       0.08532000       0.44804000
   197  H          0.41468000       0.70608000       0.44804000
   198  H          0.79392000       0.41468000       0.44804000
   199  H          0.91468000       0.20608000       0.55196000
   200  H          0.29392000       0.91468000       0.55196000
   201  H          0.58532000       0.29392000       0.55196000
   202  H          0.20608000       0.58532000       0.55196000
   203  I          0.25000000       0.25000000       0.06662600
   204  I          0.75000000       0.75000000       0.93337400
