data_ZOMWIH
_symmetry_space_group_name_H-M    'P1'
_symmetry_Int_Tables_number       1
loop_
_symmetry_equiv_pos_site_id
_symmetry_equiv_pos_as_xyz
1 x,y,z
_cell_length_a                   14.6187
_cell_length_b                   14.6187
_cell_length_c                   7.1236
_cell_angle_alpha                90.0
_cell_angle_beta                 90.0
_cell_angle_gamma                90.0
loop_
_atom_site_label
_atom_site_type_symbol
_atom_site_fract_x
_atom_site_fract_y
_atom_site_fract_z
     1  I          0.14691800       0.35309800       0.76337000
     2  I          0.35309800       0.85308200       0.23663000
     3  I          0.64691800       0.14690200       0.23663000
     4  I          0.85308200       0.64690200       0.76337000
     5  I          0.36437900       0.13563900       0.13603000
     6  I          0.13563900       0.63562100       0.86397000
     7  I          0.86437900       0.36436100       0.86397000
     8  I          0.63562100       0.86436100       0.13603000
     9  C          0.23291300       0.26711300       0.89436000
    10  C          0.26711300       0.76708700       0.10564000
    11  C          0.73291300       0.23288700       0.10564000
    12  C          0.76708700       0.73288700       0.89436000
    13  C          0.27991600       0.22011600      -0.01464400
    14  C          0.22011600       0.72008400       0.01464400
    15  C          0.77991600       0.27988400       0.01464400
    16  C          0.72008400       0.77988400      -0.01464400
    17  I         -0.00000000       0.50000000       0.56632000
    18  I          0.50000000       0.00000000       0.43368000
    19  P          0.00000000       0.00000000      -0.00000000
    20  P          0.50000000       0.50000000       0.00000000
    21  C          0.90198800       0.98588900       0.84997500
    22  C          0.98588900       0.09801200       0.15002500
    23  C          0.40198800       0.51411100       0.15002500
    24  C          0.09801200       0.01411100       0.84997500
    25  C          0.51411100       0.59801200       0.84997500
    26  C          0.01411100       0.90198800       0.15002500
    27  C          0.59801200       0.48588900       0.15002500
    28  C          0.48588900       0.40198800       0.84997500
    29  C          0.90438700       0.91858800       0.70667800
    30  C          0.91858800       0.09561300       0.29332200
    31  C          0.40438700       0.58141200       0.29332200
    32  C          0.09561300       0.08141200       0.70667800
    33  C          0.58141200       0.59561300       0.70667800
    34  C          0.08141200       0.90438700       0.29332200
    35  C          0.59561300       0.41858800       0.29332200
    36  C          0.41858800       0.40438700       0.70667800
    37  C          0.83208600       0.90408700       0.59677200
    38  C          0.90408700       0.16791400       0.40322800
    39  C          0.33208600       0.59591300       0.40322800
    40  C          0.16791400       0.09591300       0.59677200
    41  C          0.59591300       0.66791400       0.59677200
    42  C          0.09591300       0.83208600       0.40322800
    43  C          0.66791400       0.40408700       0.40322800
    44  C          0.40408700       0.33208600       0.59677200
    45  C          0.75598800       0.96288600       0.61437400
    46  C          0.96288600       0.24401200       0.38562600
    47  C          0.25598800       0.53711400       0.38562600
    48  C          0.24401200       0.03711400       0.61437400
    49  C          0.53711400       0.74401200       0.61437400
    50  C          0.03711400       0.75598800       0.38562600
    51  C          0.74401200       0.46288600       0.38562600
    52  C          0.46288600       0.25598800       0.61437400
    53  C          0.74998800       0.02511400       0.75896800
    54  C          0.02511400       0.25001200       0.24103200
    55  C          0.24998800       0.47488600       0.24103200
    56  C          0.25001200       0.97488600       0.75896800
    57  C          0.47488600       0.75001200       0.75896800
    58  C          0.97488600       0.74998800       0.24103200
    59  C          0.75001200       0.52511400       0.24103200
    60  C          0.52511400       0.24998800       0.75896800
    61  C          0.82248800       0.03491300       0.87807200
    62  C          0.03491300       0.17751200       0.12192800
    63  C          0.32248800       0.46508700       0.12192800
    64  C          0.17751200       0.96508700       0.87807200
    65  C          0.46508700       0.67751200       0.87807200
    66  C          0.96508700       0.82248800       0.12192800
    67  C          0.67751200       0.53491300       0.12192800
    68  C          0.53491300       0.32248800       0.87807200
    69  H          0.95778700       0.88378800       0.68897800
    70  H          0.88378800       0.04221300       0.31102200
    71  H          0.45778700       0.61621200       0.31102200
    72  H          0.04221300       0.11621200       0.68897800
    73  H          0.61621200       0.54221300       0.68897800
    74  H          0.11621200       0.95778700       0.31102200
    75  H          0.54221300       0.38378800       0.31102200
    76  H          0.38378800       0.45778700       0.68897800
    77  H          0.83178600       0.85578700       0.50957200
    78  H          0.85578700       0.16821400       0.49042800
    79  H          0.33178600       0.64421300       0.49042800
    80  H          0.16821400       0.14421300       0.50957200
    81  H          0.64421300       0.66821400       0.50957200
    82  H          0.14421300       0.83178600       0.49042800
    83  H          0.66821400       0.35578700       0.49042800
    84  H          0.35578700       0.33178600       0.50957200
    85  H          0.70848800       0.95938600       0.52567400
    86  H          0.95938600       0.29151200       0.47432600
    87  H          0.20848800       0.54061400       0.47432600
    88  H          0.29151200       0.04061400       0.52567400
    89  H          0.54061400       0.79151200       0.52567400
    90  H          0.04061400       0.70848800       0.47432600
    91  H          0.79151200       0.45938600       0.47432600
    92  H          0.45938600       0.20848800       0.52567400
    93  H          0.69678800       0.06031400       0.77536800
    94  H          0.06031400       0.30321200       0.22463200
    95  H          0.19678800       0.43968600       0.22463200
    96  H          0.30321200       0.93968600       0.77536800
    97  H          0.43968600       0.80321200       0.77536800
    98  H          0.93968600       0.69678800       0.22463200
    99  H          0.80321200       0.56031400       0.22463200
   100  H          0.56031400       0.19678800       0.77536800
   101  H          0.81818800       0.07551300       0.98007200
   102  H          0.07551300       0.18181200       0.01992800
   103  H          0.31818800       0.42448700       0.01992800
   104  H          0.18181200       0.92448700       0.98007200
   105  H          0.42448700       0.68181200       0.98007200
   106  H          0.92448700       0.81818800       0.01992800
   107  H          0.68181200       0.57551300       0.01992800
   108  H          0.57551300       0.31818800       0.98007200
