data_ZOMWED
_symmetry_space_group_name_H-M    'P1'
_symmetry_Int_Tables_number       1
loop_
_symmetry_equiv_pos_site_id
_symmetry_equiv_pos_as_xyz
1 x,y,z
_cell_length_a                   14.4991
_cell_length_b                   14.4991
_cell_length_c                   7.1671
_cell_angle_alpha                90.0
_cell_angle_beta                 90.0
_cell_angle_gamma                90.0
loop_
_atom_site_label
_atom_site_type_symbol
_atom_site_fract_x
_atom_site_fract_y
_atom_site_fract_z
     1  I          0.85370300       0.64630300       0.23828100
     2  I          0.64630300       0.14629700       0.76171900
     3  I          0.35370300       0.85369700       0.76171900
     4  I          0.14629700       0.35369700       0.23828100
     5  I          0.63512300       0.86488300       0.86415100
     6  I          0.86488300       0.36487700       0.13584900
     7  I          0.13512300       0.63511700       0.13584900
     8  I          0.36487700       0.13511700       0.86415100
     9  C          0.76685000       0.73325000       0.10501500
    10  C          0.73325000       0.23315000       0.89498500
    11  C          0.26685000       0.76675000       0.89498500
    12  C          0.23315000       0.26675000       0.10501500
    13  C          0.71865000       0.78145000       0.01501500
    14  C          0.78145000       0.28135000      -0.01501500
    15  C          0.21865000       0.71855000      -0.01501500
    16  C          0.28135000       0.21855000       0.01501500
    17  Br        -0.00000000       0.50000000       0.40903000
    18  Br         0.50000000       0.00000000       0.59097000
    19  P         -0.00000000      -0.00000000      -0.00000000
    20  P          0.50000000       0.50000000       0.00000000
    21  C          0.09844000       0.01384000       0.14639000
    22  C          0.01384000       0.90156000       0.85361000
    23  C          0.59844000       0.48616000       0.85361000
    24  C          0.90156000       0.98616000       0.14639000
    25  C          0.48616000       0.40156000       0.14639000
    26  C          0.98616000       0.09844000       0.85361000
    27  C          0.40156000       0.51384000       0.85361000
    28  C          0.51384000       0.59844000       0.14639000
    29  C          0.09615000       0.07935000       0.29309000
    30  C          0.07935000       0.90385000       0.70691000
    31  C          0.59615000       0.42065000       0.70691000
    32  C          0.90385000       0.92065000       0.29309000
    33  C          0.42065000       0.40385000       0.29309000
    34  C          0.92065000       0.09615000       0.70691000
    35  C          0.40385000       0.57935000       0.70691000
    36  C          0.57935000       0.59615000       0.29309000
    37  C          0.17156000       0.09195000       0.40671000
    38  C          0.09195000       0.82844000       0.59329000
    39  C          0.67156000       0.40805000       0.59329000
    40  C          0.82844000       0.90805000       0.40671000
    41  C          0.40805000       0.32844000       0.40671000
    42  C          0.90805000       0.17156000       0.59329000
    43  C          0.32844000       0.59195000       0.59329000
    44  C          0.59195000       0.67156000       0.40671000
    45  C          0.24745000       0.03656000       0.38361100
    46  C          0.03656000       0.75255000       0.61638900
    47  C          0.74745000       0.46344000       0.61638900
    48  C          0.75255000       0.96344000       0.38361100
    49  C          0.46344000       0.25255000       0.38361100
    50  C          0.96344000       0.24745000       0.61638900
    51  C          0.25255000       0.53656000       0.61638900
    52  C          0.53656000       0.74745000       0.38361100
    53  C          0.25045000       0.97436000       0.24391400
    54  C          0.97436000       0.74955000       0.75608600
    55  C          0.75045000       0.52564000       0.75608600
    56  C          0.74955000       0.02564000       0.24391400
    57  C          0.52564000       0.24955000       0.24391400
    58  C          0.02564000       0.25045000       0.75608600
    59  C          0.24955000       0.47436000       0.75608600
    60  C          0.47436000       0.75045000       0.24391400
    61  C          0.17745000       0.96155000       0.12641100
    62  C          0.96155000       0.82255000       0.87358900
    63  C          0.67745000       0.53845000       0.87358900
    64  C          0.82255000       0.03845000       0.12641100
    65  C          0.53845000       0.32255000       0.12641100
    66  C          0.03845000       0.17745000       0.87358900
    67  C          0.32255000       0.46155000       0.87358900
    68  C          0.46155000       0.67745000       0.12641100
    69  H          0.04265000       0.11455000       0.31279000
    70  H          0.11455000       0.95735000       0.68721000
    71  H          0.54265000       0.38545000       0.68721000
    72  H          0.95735000       0.88545000       0.31279000
    73  H          0.38545000       0.45735000       0.31279000
    74  H          0.88545000       0.04265000       0.68721000
    75  H          0.45735000       0.61455000       0.68721000
    76  H          0.61455000       0.54265000       0.31279000
    77  H          0.17116000       0.13795000       0.49911000
    78  H          0.13795000       0.82884000       0.50089000
    79  H          0.67116000       0.36205000       0.50089000
    80  H          0.82884000       0.86205000       0.49911000
    81  H          0.36205000       0.32884000       0.49911000
    82  H          0.86205000       0.17116000       0.50089000
    83  H          0.32884000       0.63795000       0.50089000
    84  H          0.63795000       0.67116000       0.49911000
    85  H          0.29775000       0.04196000       0.46571100
    86  H          0.04196000       0.70225000       0.53428900
    87  H          0.79775000       0.45804000       0.53428900
    88  H          0.70225000       0.95804000       0.46571100
    89  H          0.45804000       0.20225000       0.46571100
    90  H          0.95804000       0.29775000       0.53428900
    91  H          0.20225000       0.54196000       0.53428900
    92  H          0.54196000       0.79775000       0.46571100
    93  H          0.30405000       0.93886000       0.22691400
    94  H          0.93886000       0.69595000       0.77308600
    95  H          0.80405000       0.56114000       0.77308600
    96  H          0.69595000       0.06114000       0.22691400
    97  H          0.56114000       0.19595000       0.22691400
    98  H          0.06114000       0.30405000       0.77308600
    99  H          0.19595000       0.43886000       0.77308600
   100  H          0.43886000       0.80405000       0.22691400
   101  H          0.18095000       0.91695000       0.03151100
   102  H          0.91695000       0.81905000       0.96848900
   103  H          0.68095000       0.58305000       0.96848900
   104  H          0.81905000       0.08305000       0.03151100
   105  H          0.58305000       0.31905000       0.03151100
   106  H          0.08305000       0.18095000       0.96848900
   107  H          0.31905000       0.41695000       0.96848900
   108  H          0.41695000       0.68095000       0.03151100
