data_ZONYOQ
_symmetry_space_group_name_H-M    'P1'
_symmetry_Int_Tables_number       1
loop_
_symmetry_equiv_pos_site_id
_symmetry_equiv_pos_as_xyz
1 x,y,z
_cell_length_a                   7.7192
_cell_length_b                   9.2462
_cell_length_c                   9.9882
_cell_angle_alpha                111.433
_cell_angle_beta                 107.763
_cell_angle_gamma                94.033
loop_
_atom_site_label
_atom_site_type_symbol
_atom_site_fract_x
_atom_site_fract_y
_atom_site_fract_z
     1  I          0.07641000       0.38661000       0.30191000
     2  I          0.92359000       0.61339000       0.69809000
     3  O          0.96644000       0.89224000       0.10394000
     4  O          0.03356000       0.10776000       0.89606000
     5  O          0.76414000      -0.01476000       0.95966000
     6  O          0.23586000       0.01476000       0.04034000
     7  C          0.27115000       0.50445000       0.24954000
     8  C          0.72885000       0.49555000       0.75046000
     9  C          0.21686000       0.59665000       0.16825000
    10  C          0.78314000       0.40335000       0.83175000
    11  C          0.45516000       0.49096000       0.29766000
    12  C          0.54484000       0.50904000       0.70234000
    13  C          0.53216000       0.66165000       0.18174000
    14  C          0.46784000       0.33835000       0.81826000
    15  C          0.80286000       0.90815000       0.04275000
    16  C          0.19714000       0.09185000       0.95725000
    17  C          0.64906000       0.83475000       0.07075000
    18  C          0.35094000       0.16525000       0.92925000
    19  C          0.34736000       0.67355000       0.13365000
    20  C          0.65264000       0.32645000       0.86635000
    21  C          0.58346000       0.57035000       0.26385000
    22  C          0.41654000       0.42965000       0.73615000
    23  C          0.67476000       0.74435000       0.14995000
    24  C          0.32524000       0.25565000       0.85005000
    25  H          0.03871400       0.93696600       0.07896000
    26  H          0.96128600       0.06303400       0.92104000
    27  H          0.70496200       0.56404900       0.29794700
    28  H          0.29503800       0.43595100       0.70205300
    29  H          0.07985700       0.60414600       0.13494400
    30  H          0.92014300       0.39585400       0.86505600
    31  H          0.53117000       0.84325600       0.01885400
    32  H          0.46883000       0.15674400       0.98114600
    33  H          0.49035500       0.43364800       0.34634500
    34  H          0.50964500       0.56635200       0.65365500
    35  H          0.79526800       0.73885500       0.19965300
    36  H          0.20473200       0.26114500       0.80034700
    37  H          0.30826000       0.74065200       0.08264900
    38  H          0.69174000       0.25934800       0.91735100
    39  N          0.23306000       0.84345000       0.56885000
    40  N          0.76694000       0.15655000       0.43115000
    41  O          0.28635000       0.78575000       0.66155000
    42  O          0.71365000       0.21425000       0.33845000
    43  O          0.06975000       0.83735000       0.50235000
    44  O          0.93025000       0.16265000       0.49765000
    45  C          0.31486000       0.01015000       0.44495000
    46  C          0.68514000      -0.01015000       0.55505000
    47  C          0.55446000       0.91405000       0.58865000
    48  C          0.44554000       0.08595000       0.41135000
    49  C          0.37146000       0.92515000       0.53245000
    50  C          0.62854000       0.07485000       0.46755000
    51  H          0.59035900       0.85865200       0.65094900
    52  H          0.40964100       0.14134800       0.34905100
    53  H          0.19246900       0.01495500       0.40805300
    54  H          0.80753100      -0.01495500       0.59194700
