data_ZOTGUN
_symmetry_space_group_name_H-M    'P1'
_symmetry_Int_Tables_number       1
loop_
_symmetry_equiv_pos_site_id
_symmetry_equiv_pos_as_xyz
1 x,y,z
_cell_length_a                   4.81476
_cell_length_b                   6.13029
_cell_length_c                   27.8363
_cell_angle_alpha                89.05111
_cell_angle_beta                 85.95011
_cell_angle_gamma                85.02611
loop_
_atom_site_label
_atom_site_type_symbol
_atom_site_fract_x
_atom_site_fract_y
_atom_site_fract_z
     1  O          0.11928000       0.70495000       0.78370130
     2  O          0.88072000       0.29505000       0.21629870
     3  H          0.22570000       0.64070000       0.80200000
     4  H          0.77430000       0.35930000       0.19800000
     5  C          0.04449000       0.56237000       0.75166140
     6  C          0.95551000       0.43763000       0.24833860
     7  C          0.84239000       0.63278000       0.71910170
     8  C          0.15761000       0.36722000       0.28089830
     9  H          0.76020000       0.77570000       0.72030000
    10  H          0.23980000       0.22430000       0.27970000
    11  C          0.76649000       0.49019000       0.68555160
    12  C          0.23351000       0.50981000       0.31444840
    13  H          0.63340000       0.53780000       0.66420000
    14  H          0.36660000       0.46220000       0.33580000
    15  C          0.88628900       0.27709000       0.68332180
    16  C          0.11371100       0.72291000       0.31667820
    17  H          0.83530000       0.18200000       0.66040000
    18  H          0.16470000       0.81800000       0.33960000
    19  C          0.08211000       0.20598000       0.71535170
    20  C          0.91789000       0.79402000       0.28464830
    21  H          0.16190000       0.06230000       0.71370000
    22  H          0.83810000       0.93770000       0.28630000
    23  C          0.16358000       0.34466000       0.75025130
    24  C          0.83642000       0.65534000       0.24974870
    25  C          0.36468000       0.26117000       0.78465140
    26  C          0.63532000       0.73883000       0.21534860
    27  H          0.43530000       0.11510000       0.78320000
    28  H          0.56470000       0.88490000       0.21680000
    29  N          0.44566000       0.38475000       0.81674110
    30  N          0.55434000       0.61525000       0.18325890
    31  C          0.64157000       0.30186000       0.85035130
    32  C          0.35843000       0.69814000       0.14964870
    33  C          0.69649000       0.44407000       0.88620150
    34  C          0.30351000       0.55593000       0.11379850
    35  H          0.60650000       0.58450000       0.88740000
    36  H          0.39350000       0.41550000       0.11260000
    37  C          0.88579000       0.37707000       0.92036150
    38  C          0.11421000       0.62293000       0.07963850
    39  H          0.92150000       0.47340000       0.94420000
    40  H          0.07850000       0.52660000       0.05580000
    41  C          0.02108000       0.16787000       0.91908130
    42  C         -0.02108000       0.83213000       0.08091870
    43  C          0.96739000       0.02587000       0.88322150
    44  C          0.03261000       0.97413000       0.11677850
    45  H          0.05830000       0.88570000       0.88200000
    46  H          0.94170000       0.11430000       0.11800000
    47  C          0.77919000       0.09097000       0.84909150
    48  C          0.22081000       0.90903000       0.15090850
    49  H          0.74430000      -0.00600000       0.82530000
    50  H          0.25570000       0.00600000       0.17470000
    51  C          0.22778000       0.09437000       0.95491130
    52  C          0.77222000       0.90563000       0.04508870
    53  O          0.27198000       0.22776000       0.98742120
    54  O          0.72802000       0.77224000       0.01257880
    55  H          0.38110000       0.16760000       0.00580000
    56  H          0.61890000       0.83240000       0.99420000
    57  O          0.35097000       0.90185000       0.95179120
    58  O          0.64903000       0.09815000       0.04820880
    59  C          0.35239000       0.88857000       0.53729160
    60  C          0.64761000       0.11143000       0.46270840
    61  C          0.49111000       0.07237000       0.54642160
    62  C          0.50889000       0.92763000       0.45357840
    63  C          0.63541000       0.17997000       0.51028170
    64  C          0.36459000       0.82003000       0.48971830
    65  I          0.14192700       0.72133600       0.59243200
    66  I          0.85807300       0.27866400       0.40756800
    67  F          0.48807000       0.14315000       0.59185100
    68  F          0.51193000       0.85685000       0.40814900
    69  F          0.76688000       0.35445000       0.52157120
    70  F          0.23312000       0.64555000       0.47842880
