data_ZOTLOM
_symmetry_space_group_name_H-M    'P1'
_symmetry_Int_Tables_number       1
loop_
_symmetry_equiv_pos_site_id
_symmetry_equiv_pos_as_xyz
1 x,y,z
_cell_length_a                   3.8888914
_cell_length_b                   32.563011
_cell_length_c                   11.81704
_cell_angle_alpha                90.0
_cell_angle_beta                 95.9943
_cell_angle_gamma                90.0
loop_
_atom_site_label
_atom_site_type_symbol
_atom_site_fract_x
_atom_site_fract_y
_atom_site_fract_z
     1  O         -0.01266000       0.58364400       0.32319110
     2  O          0.01266000       0.08364400       0.17680890
     3  O          0.01266000       0.41635600       0.67680890
     4  O         -0.01266000       0.91635600       0.82319110
     5  C         -0.01095000       0.58506500       0.43114150
     6  C          0.01095000       0.08506500       0.06885850
     7  C          0.01095000       0.41493500       0.56885850
     8  C         -0.01095000       0.91493500       0.93114150
     9  C          0.14295000       0.55257500       0.50089170
    10  C          0.85705000       0.05257500      -0.00089170
    11  C          0.85705000       0.44742500       0.49910830
    12  C          0.14295000       0.94742500       0.00089170
    13  H          0.24480000       0.53060000       0.46680000
    14  H          0.75520000       0.03060000       0.03320000
    15  H          0.75520000       0.46940000       0.53320000
    16  H          0.24480000       0.96940000       0.96680000
    17  C          0.14285000       0.55320500       0.61443170
    18  C          0.85715000       0.05320500       0.88556830
    19  C          0.85715000       0.44679500       0.38556830
    20  C          0.14285000       0.94679500       0.11443170
    21  H          0.24230000       0.53140000       0.65680000
    22  H          0.75770000       0.03140000       0.84320000
    23  H          0.75770000       0.46860000       0.34320000
    24  H          0.24230000       0.96860000       0.15680000
    25  C         -0.00486000       0.58625500       0.67260150
    26  C          0.00486000       0.08625500       0.82739850
    27  C          0.00486000       0.41374500       0.32739850
    28  C         -0.00486000       0.91374500       0.17260150
    29  C         -0.00025000       0.58602600       0.79161160
    30  C          0.00025000       0.08602600       0.70838840
    31  C          0.00025000       0.41397400       0.20838840
    32  C         -0.00025000       0.91397400       0.29161160
    33  H          0.09920000       0.56390000       0.83270000
    34  H          0.90080000       0.06390000       0.66730000
    35  H          0.90080000       0.43610000       0.16730000
    36  H          0.09920000       0.93610000       0.33270000
    37  C          0.86166000       0.61750700       0.84843170
    38  C          0.13834000       0.11750700       0.65156830
    39  C          0.13834000       0.38249300       0.15156830
    40  C          0.86166000       0.88249300       0.34843170
    41  H          0.86370000       0.61670000       0.92720000
    42  H          0.13630000       0.11670000       0.57280000
    43  H          0.13630000       0.38330000       0.07280000
    44  H          0.86370000       0.88330000       0.42720000
    45  C          0.71795000       0.65070600       0.78650160
    46  C          0.28205000       0.15070600       0.71349840
    47  C          0.28205000       0.34929400       0.21349840
    48  C          0.71795000       0.84929400       0.28650160
    49  H          0.62650000       0.67250000       0.82460000
    50  H          0.37350000       0.17250000       0.67540000
    51  H          0.37350000       0.32750000       0.17540000
    52  H          0.62650000       0.82750000       0.32460000
    53  C          0.70835000       0.65193600       0.67024150
    54  C          0.29165000       0.15193600       0.82975850
    55  C          0.29165000       0.34806400       0.32975850
    56  C          0.70835000       0.84806400       0.17024150
    57  H          0.60970000       0.67450000       0.63100000
    58  H          0.39030000       0.17450000       0.86900000
    59  H          0.39030000       0.32550000       0.36900000
    60  H          0.60970000       0.82550000       0.13100000
    61  C          0.84444000       0.61977500       0.60900140
    62  C          0.15556000       0.11977500       0.89099860
    63  C          0.15556000       0.38022500       0.39099860
    64  C          0.84444000       0.88022500       0.10900140
    65  C          0.83604000       0.61893500       0.48564140
    66  C          0.16396000       0.11893500       0.01435860
    67  C          0.16396000       0.38106500       0.51435860
    68  C          0.83604000       0.88106500       0.98564140
    69  C          0.66774000       0.64963500       0.41907140
    70  C          0.33226000       0.14963500       0.08092860
    71  C          0.33226000       0.35036500       0.58092860
    72  C          0.66774000       0.85036500       0.91907140
    73  H          0.56990000       0.67120000       0.45630000
    74  H          0.43010000       0.17120000       0.04370000
    75  H          0.43010000       0.32880000       0.54370000
    76  H          0.56990000       0.82880000       0.95630000
    77  N          0.63754000       0.65027400       0.30700120
    78  N          0.36246000       0.15027400       0.19299880
    79  N          0.36246000       0.34972600       0.69299880
    80  N          0.63754000       0.84972600       0.80700120
    81  H          0.73000000       0.63020000       0.27400000
    82  H          0.27000000       0.13020000       0.22600000
    83  H          0.27000000       0.36980000       0.72600000
    84  H          0.73000000       0.86980000       0.77400000
    85  C          0.46974000       0.68043500       0.23536140
    86  C          0.53026000       0.18043500       0.26463860
    87  C          0.53026000       0.31956500       0.76463860
    88  C          0.46974000       0.81956500       0.73536140
    89  C          0.38385000       0.67025600       0.12235150
    90  C          0.61615000       0.17025600       0.37764850
    91  C          0.61615000       0.32974400       0.87764850
    92  C          0.38385000       0.82974400       0.62235150
    93  H          0.43210000       0.64410000       0.09640000
    94  H          0.56790000       0.14410000       0.40360000
    95  H          0.56790000       0.35590000       0.90360000
    96  H          0.43210000       0.85590000       0.59640000
    97  C          0.22586000       0.69904600       0.04795160
    98  C          0.77414000       0.19904600       0.45204840
    99  C          0.77414000       0.30095400       0.95204840
   100  C          0.22586000       0.80095400       0.54795160
   101  H          0.16890000       0.69270000       0.97160000
   102  H          0.83110000       0.19270000       0.52840000
   103  H          0.83110000       0.30730000       0.02840000
   104  H          0.16890000       0.80730000       0.47160000
   105  C          0.15545000       0.73696600       0.08895160
   106  C          0.84455000       0.23696600       0.41104840
   107  C          0.84455000       0.26303400       0.91104840
   108  C          0.15545000       0.76303400       0.58895160
   109  C          0.23435000       0.74778600       0.19972160
   110  C          0.76565000       0.24778600       0.30027840
   111  C          0.76565000       0.25221400       0.80027840
   112  C          0.23435000       0.75221400       0.69972160
   113  H          0.18040000       0.77380000       0.22510000
   114  H          0.81960000       0.27380000       0.27490000
   115  H          0.81960000       0.22620000       0.77490000
   116  H          0.18040000       0.72620000       0.72510000
   117  C          0.39635000       0.71928500       0.27389150
   118  C          0.60365000       0.21928500       0.22610850
   119  C          0.60365000       0.28071500       0.72610850
   120  C          0.39635000       0.78071500       0.77389150
   121  H          0.45600000       0.72620000       0.34970000
   122  H          0.54400000       0.22620000       0.15030000
   123  H          0.54400000       0.27380000       0.65030000
   124  H          0.45600000       0.77380000       0.84970000
   125  F         -0.00074000       0.76534400       0.01535110
   126  F          0.00074000       0.26534400       0.48464890
   127  F          0.00074000       0.23465600       0.98464890
   128  F         -0.00074000       0.73465600       0.51535110
   129  C          0.43005000       0.49822500       0.04770150
   130  C          0.56995000      -0.00177500       0.45229850
   131  C          0.56995000       0.50177500       0.95229850
   132  C          0.43005000       0.00177500       0.54770150
   133  H          0.38470000       0.47210000       0.07420000
   134  H          0.61530000       0.97210000       0.42580000
   135  H          0.61530000       0.52790000       0.92580000
   136  H          0.38470000       0.02790000       0.57420000
   137  C          0.34085000       0.53443600       0.11520150
   138  C          0.65915000       0.03443600       0.38479850
   139  C          0.65915000       0.46556400       0.88479850
   140  C          0.34085000       0.96556400       0.61520150
   141  O          0.22214000       0.52352400       0.21073120
   142  O          0.77786000       0.02352400       0.28926880
   143  O          0.77786000       0.47647600       0.78926880
   144  O          0.22214000       0.97647600       0.71073120
   145  H          0.16920000       0.54410000       0.24500000
   146  H          0.83080000       0.04410000       0.25500000
   147  H          0.83080000       0.45590000       0.75500000
   148  H          0.16920000       0.95590000       0.74500000
   149  O          0.37245000       0.56934400       0.08514130
   150  O          0.62755000       0.06934400       0.41485870
   151  O          0.62755000       0.43065600       0.91485870
   152  O          0.37245000       0.93065600       0.58514130
