data_ZOXVER
_symmetry_space_group_name_H-M    'P1'
_symmetry_Int_Tables_number       1
loop_
_symmetry_equiv_pos_site_id
_symmetry_equiv_pos_as_xyz
1 x,y,z
_cell_length_a                   7.13804
_cell_length_b                   9.24564
_cell_length_c                   15.13145
_cell_angle_alpha                99.5573
_cell_angle_beta                 97.1034
_cell_angle_gamma                101.2774
loop_
_atom_site_label
_atom_site_type_symbol
_atom_site_fract_x
_atom_site_fract_y
_atom_site_fract_z
     1  P          0.50000000       0.00000000       0.00000000
     2  F          0.52015000       0.14084000       0.95282000
     3  F          0.47985000       0.85916000       0.04718000
     4  F          0.62086000       0.92494000       0.93203000
     5  F          0.37914000       0.07506000       0.06797000
     6  F          0.69125000       0.07894000       0.06923000
     7  F          0.30875000       0.92106000       0.93077000
     8  S          0.38332150       0.93374100       0.60952700
     9  S          0.61667850       0.06625900       0.39047300
    10  S          0.15552150       0.48492100       0.14724600
    11  S          0.84447850       0.51507900       0.85275400
    12  S          0.06372140       0.96439100       0.28714600
    13  S          0.93627860       0.03560900       0.71285400
    14  S          0.29748150       0.41433100       0.74843600
    15  S          0.70251850       0.58566900       0.25156400
    16  C          0.20164000       0.40543000       0.40322000
    17  C          0.79836000       0.59457000       0.59678000
    18  C          0.15945000       0.24474000       0.38972000
    19  C          0.84055000       0.75526000       0.61028000
    20  C          0.16355000       0.17744000       0.46723000
    21  C          0.83645000       0.82256000       0.53277000
    22  H          0.13623900       0.07306500       0.45923100
    23  H          0.86376100       0.92693500       0.54076900
    24  C          0.24885000       0.42014000       0.56902000
    25  C          0.75115000       0.57986000       0.43098000
    26  C          0.33435000       0.66464000       0.67023000
    27  C          0.66565000       0.33536000       0.32977000
    28  H          0.36311300       0.72148700       0.72882900
    29  H          0.63688700       0.27851300       0.27117100
    30  C          0.28844000       0.65274000       0.50672000
    31  C          0.71156000       0.34726000       0.49328000
    32  C          0.19945000       0.47874000       0.32702000
    33  C          0.80055000       0.52126000       0.67298000
    34  C          0.24625000       0.49284000       0.49302000
    35  C          0.75375000       0.50716000       0.50698000
    36  C          0.28505000       0.72174000       0.42923000
    37  C          0.71495000       0.27826000       0.57077000
    38  H          0.31214100       0.82604800       0.43737200
    39  H          0.68785900       0.17395200       0.56262800
    40  C          0.20565000       0.26014000       0.55223000
    41  C          0.79435000       0.73986000       0.44777000
    42  H          0.20645200       0.21121800       0.60123400
    43  H          0.79354800       0.78878200       0.39876600
    44  C          0.11355000       0.23274000       0.22522000
    45  C          0.88645000       0.76726000       0.77478000
    46  H          0.08457500       0.17591000       0.16650300
    47  H          0.91542500       0.82409000       0.83349700
    48  C          0.33285000       0.73694000       0.59673000
    49  C          0.66715000       0.26306000       0.40327000
    50  C          0.24315000       0.63834000       0.34373000
    51  C          0.75685000       0.36166000       0.65627000
    52  H          0.24294100       0.68710500       0.29465600
    53  H          0.75705900       0.31289500       0.70534400
    54  C          0.29375000       0.50934000       0.65753000
    55  C          0.70625000       0.49066000       0.34247000
    56  C          0.15495000       0.38884000       0.23833000
    57  C          0.84505000       0.61116000       0.76167000
    58  C          0.11465000       0.15994000       0.29923000
    59  C          0.88535000       0.84006000       0.70077000
    60  C          0.42926000       0.00014000       0.72973000
    61  C          0.57074000      -0.00014000       0.27027000
    62  H          0.45347500       0.10788800       0.74268900
    63  H          0.54652500       0.89211200       0.25731100
    64  H          0.54011700       0.96813700       0.75570000
    65  H          0.45988300       0.03186300       0.24430000
    66  H          0.31853100       0.95974000       0.75536200
    67  H          0.68146900       0.04026000       0.24463800
    68  C          0.36036000       0.56095000       0.84733000
    69  C          0.63964000       0.43905000       0.15267000
    70  H          0.48110700       0.62632800       0.84500400
    71  H          0.51889300       0.37367200       0.15499600
    72  H          0.37258000       0.51752600       0.90061500
    73  H          0.62742000       0.48247400       0.09938500
    74  H          0.26097300       0.61735000       0.84947100
    75  H          0.73902700       0.38265000       0.15052900
    76  C          0.01556000       0.89386000       0.16743000
    77  C         -0.01556000       0.10614000       0.83257000
    78  H          0.90666600       0.92766500       0.14088700
    79  H          0.09333400       0.07233500       0.85911300
    80  H         -0.01299300       0.78593700       0.15586000
    81  H          0.01299300       0.21406300       0.84414000
    82  H          0.12694100       0.93010400       0.14109800
    83  H          0.87305900       0.06989600       0.85890200
    84  C          0.09797000       0.33935000       0.04723000
    85  C          0.90203000       0.66065000       0.95277000
    86  H          0.09836500       0.38394200      -0.00571900
    87  H          0.90163500       0.61605800       0.00571900
    88  H          0.97194100       0.27779000       0.04550800
    89  H          0.02805900       0.72221000       0.95449200
    90  H          0.19241800       0.27847800       0.04841200
    91  H          0.80758200       0.72152200       0.95158800
