data_ZOYBOG
_symmetry_space_group_name_H-M    'P1'
_symmetry_Int_Tables_number       1
loop_
_symmetry_equiv_pos_site_id
_symmetry_equiv_pos_as_xyz
1 x,y,z
_cell_length_a                   8.214816
_cell_length_b                   8.250417
_cell_length_c                   13.1323
_cell_angle_alpha                102.823
_cell_angle_beta                 97.463
_cell_angle_gamma                93.983
loop_
_atom_site_label
_atom_site_type_symbol
_atom_site_fract_x
_atom_site_fract_y
_atom_site_fract_z
     1  O          0.22071150       0.19748140       0.60850100
     2  O          0.77928850       0.80251860       0.39149900
     3  C          0.07437180      -0.01092000       0.66930130
     4  C          0.92562820       0.01092000       0.33069870
     5  H          0.28430000       0.21130000       0.55591900
     6  H          0.71570000       0.78870000       0.44408100
     7  H          0.81670000       0.72070000       0.88081900
     8  H          0.18330000       0.27930000       0.11918100
     9  O          0.20876140       0.93195860       0.51814900
    10  O          0.79123860       0.06804140       0.48185100
    11  C          0.04348190       0.10372000       0.75802130
    12  C          0.95651810       0.89628000       0.24197870
    13  H          0.08010000       0.21890000       0.76860000
    14  H          0.91990000       0.78110000       0.23140000
    15  O          0.82244850       0.83032840       0.88890100
    16  O          0.17755150       0.16967160       0.11109900
    17  C          0.95853810       0.04862000       0.83120130
    18  C          0.04146190       0.95138000       0.16879870
    19  H          0.93820000       0.12630000       0.89220000
    20  H          0.06180000       0.87370000       0.10780000
    21  O          0.86570850       0.60559860       0.71517900
    22  O          0.13429150       0.39440140       0.28482100
    23  C          0.90358820       0.88118000       0.81547130
    24  C          0.09641180       0.11882000       0.18452870
    25  C          0.92993820       0.76641810       0.72391130
    26  C          0.07006180       0.23358190       0.27608870
    27  C          0.01607180       0.82013810       0.65196120
    28  C         -0.01607180       0.17986190       0.34803880
    29  H          0.03580000       0.74260000       0.59070000
    30  H          0.96420000       0.25740000       0.40930000
    31  C          0.88818000       0.48228000       0.62399150
    32  C          0.11182000       0.51772000       0.37600850
    33  H          0.84420000       0.51710000       0.56010000
    34  H          0.15580000       0.48290000       0.43990000
    35  H          0.82980000       0.37510000       0.62490000
    36  H          0.17020000       0.62490000       0.37510000
    37  H          0.00620000       0.47030000       0.62450000
    38  H         -0.00620000       0.52970000       0.37550000
    39  C          0.17266180       0.03582000       0.59157130
    40  C          0.82733820       0.96418000       0.40842870
    41  H          0.06440000       0.55340000       0.88420000
    42  H          0.93560000       0.44660000       0.11580000
    43  H          0.21730000       0.64630000       0.87620000
    44  H          0.78270000       0.35370000       0.12380000
    45  O          0.16858180       0.56627180       0.90179120
    46  O          0.83141820       0.43372820       0.09820880
    47  H          0.76470000       0.43060000       0.85120000
    48  H          0.23530000       0.56940000       0.14880000
    49  O          0.82052840       0.50587840       0.90195120
    50  O          0.17947160       0.49412160       0.09804880
    51  H          0.81570000       0.47570000       0.95881900
    52  H          0.18430000       0.52430000       0.04118100
    53  H          0.33430000       0.97080000       0.41131700
    54  H          0.66570000       0.02920000       0.58868300
    55  O          0.36558140       0.73684870       0.26350900
    56  O          0.63441860       0.26315130       0.73649100
    57  O          0.40014140       0.26631140       0.46665900
    58  O          0.59985860       0.73368860       0.53334100
    59  C          0.41773180       0.88407810       0.27560120
    60  C          0.58226820       0.11592190       0.72439880
    61  C          0.50911180       0.95745810       0.20931120
    62  C          0.49088820       0.04254190       0.79068880
    63  N          0.57288160       0.88994840       0.11833110
    64  N          0.42711840       0.11005160       0.88166890
    65  C          0.65142190       0.01832000       0.09171130
    66  C          0.34857810      -0.01832000       0.90828870
    67  H          0.70750000       0.00530000       0.03200000
    68  H          0.29250000      -0.00530000       0.96800000
    69  N          0.64407160       0.16594160       0.15637110
    70  N          0.35592840       0.83405840       0.84362890
    71  C          0.55635180       0.12565190       0.22978120
    72  C          0.44364820       0.87434810       0.77021880
    73  N          0.51808160       0.23667160       0.31670110
    74  N          0.48191840       0.76332840       0.68329890
    75  C          0.43531180       0.17438190       0.38623130
    76  C          0.56468820       0.82561810       0.61376870
    77  N          0.39130160       0.00445160       0.36279110
    78  N          0.60869840      -0.00445160       0.63720890
    79  C          0.56452000       0.41682000       0.33443150
    80  C          0.43548000       0.58318000       0.66556850
    81  H          0.49480000       0.46180000       0.28310000
    82  H          0.50520000       0.53820000       0.71690000
    83  H          0.68050000       0.43640000       0.32590000
    84  H          0.31950000       0.56360000       0.67410000
    85  H          0.54920000       0.47270000       0.40610000
    86  H          0.45080000       0.52730000       0.59390000
    87  C          0.56382000       0.71338000       0.06579140
    88  C          0.43618000       0.28662000       0.93420860
    89  H          0.62660000       0.70050000       0.00650000
    90  H          0.37340000       0.29950000      -0.00650000
    91  H          0.44820000       0.67020000       0.03950000
    92  H          0.55180000       0.32980000       0.96050000
    93  H          0.61030000       0.65100000       0.11610000
    94  H          0.38970000       0.34900000       0.88390000
