data_ZUBNUH
_symmetry_space_group_name_H-M    'P1'
_symmetry_Int_Tables_number       1
loop_
_symmetry_equiv_pos_site_id
_symmetry_equiv_pos_as_xyz
1 x,y,z
_cell_length_a                   5.420713
_cell_length_b                   6.7972
_cell_length_c                   10.5303
_cell_angle_alpha                82.8225
_cell_angle_beta                 77.8683
_cell_angle_gamma                71.3303
loop_
_atom_site_label
_atom_site_type_symbol
_atom_site_fract_x
_atom_site_fract_y
_atom_site_fract_z
     1  N          0.16872000       0.03072180       0.34633110
     2  N          0.83128000       0.96927820       0.65366890
     3  H          0.16420000       0.09230000       0.26780000
     4  H          0.83580000       0.90770000       0.73220000
     5  N          0.38442000       0.89297820       0.38459110
     6  N          0.61558000       0.10702180       0.61540890
     7  C          0.30913000       0.83678000       0.50895130
     8  C          0.69087000       0.16322000       0.49104870
     9  C          0.04123000       0.93888000       0.55366120
    10  C          0.95877000       0.06112000       0.44633880
    11  N          0.49312000       0.69216820       0.58092110
    12  N          0.50688000       0.30783180       0.41907890
    13  O          0.72172000       0.61291830       0.52592110
    14  O          0.27828000       0.38708170       0.47407890
    15  O          0.40662000       0.65672820       0.69641100
    16  O          0.59338000       0.34327180       0.30358900
    17  N          0.42222000       0.24647190       0.03269110
    18  N          0.57778000       0.75352810       0.96730890
    19  N          0.19002000       0.20955180       0.10045110
    20  N          0.80998000       0.79044820       0.89954890
    21  C          0.03233000       0.23372000       0.01721130
    22  C          0.96767000       0.76628000       0.98278870
    23  H          0.86060000       0.21710000       0.03790000
    24  H          0.13940000       0.78290000       0.96210000
    25  N          0.15072000       0.28571180       0.89786110
    26  N          0.84928000       0.71428820       0.10213890
    27  C          0.39153000       0.29272000       0.91202130
    28  C          0.60847000       0.70728000       0.08797870
    29  H          0.51920000       0.32650000       0.84360000
    30  H          0.48080000       0.67350000       0.15640000
    31  N          0.03533000       0.32252000       0.78502120
    32  N          0.96467000       0.67748000       0.21497880
    33  H          0.16540000       0.27430000       0.71831800
    34  H          0.83460000       0.72570000       0.28168200
    35  H          0.97970000       0.45930000       0.76971700
    36  H          0.02030000       0.54070000       0.23028300
