data_ZUDCAE
_symmetry_space_group_name_H-M    'P1'
_symmetry_Int_Tables_number       1
loop_
_symmetry_equiv_pos_site_id
_symmetry_equiv_pos_as_xyz
1 x,y,z
_cell_length_a                   11.61782
_cell_length_b                   12.80542
_cell_length_c                   15.43883
_cell_angle_alpha                100.1571
_cell_angle_beta                 93.9671
_cell_angle_gamma                103.2741
loop_
_atom_site_label
_atom_site_type_symbol
_atom_site_fract_x
_atom_site_fract_y
_atom_site_fract_z
     1  I          0.45765712       0.42315011       0.12618490
     2  I          0.54234288       0.57684989       0.87381510
     3  I          0.61864212       0.65403912       0.34733690
     4  I          0.38135788       0.34596088       0.65266310
     5  N          0.73325160       0.34076150       0.98509880
     6  N          0.26674840       0.65923850       0.01490120
     7  N          0.65617160       0.24406150       0.96674870
     8  N          0.34382840       0.75593850       0.03325130
     9  N          0.56533160       0.26006150       0.01076120
    10  N          0.43466840       0.73993850       0.98923880
    11  N         -0.01129830       0.76949160       0.33660130
    12  N          0.01129830       0.23050840       0.66339870
    13  N         -0.01257820       0.79539170       0.42295140
    14  N          0.01257820       0.20460830       0.57704860
    15  N          0.87301170       0.75979160       0.43420130
    16  N          0.12698830       0.24020840       0.56579870
    17  C          0.78782190       0.57188180       0.16444150
    18  C          0.21217810       0.42811820       0.83555850
    19  H          0.75920000       0.52320000       0.20321700
    20  H          0.24080000       0.47680000       0.79678300
    21  C          0.85574190       0.67914180       0.19607150
    22  C          0.14425810       0.32085820       0.80392850
    23  C          0.89932000       0.74542190       0.13648160
    24  C          0.10068000       0.25457810       0.86351840
    25  H          0.94230000       0.82020000       0.15871900
    26  H          0.05770000       0.17980000       0.84128100
    27  C          0.87642000       0.70402000       0.04636160
    28  C          0.12358000       0.29598000       0.95363840
    29  H          0.90620000       0.74520000       0.00761800
    30  H          0.09380000       0.25480000      -0.00761800
    31  C          0.81071190       0.59700190       0.01384150
    32  C          0.18928810       0.40299810       0.98615850
    33  H          0.79320000       0.57220000       0.95128300
    34  H          0.20680000       0.42780000       0.04871700
    35  C          0.76606180       0.53145180       0.07326150
    36  C          0.23393820       0.46854820       0.92673850
    37  C          0.69485190       0.41797180       0.04014140
    38  C          0.30514810       0.58202820       0.95985860
    39  C          0.58368180       0.36480180       0.05668140
    40  C          0.41631820       0.63519820       0.94331860
    41  C          0.84822000       0.35132000       0.94905820
    42  C          0.15178000       0.64868000       0.05094180
    43  H          0.85230000       0.28230000       0.91580000
    44  H          0.14770000       0.71770000       0.08420000
    45  H          0.85120000       0.40020000       0.90858100
    46  H          0.14880000       0.59980000       0.09141900
    47  H          0.90830000       0.37530000      -0.00320000
    48  H          0.09170000       0.62470000       0.00320000
    49  C          0.45990190       0.16980170       0.00192150
    50  C          0.54009810       0.83019830      -0.00192150
    51  C          0.37642000       0.15289190       0.92794840
    52  C          0.62358000       0.84710810       0.07205160
    53  C          0.27382000       0.06922000       0.92249830
    54  C          0.72618000       0.93078000       0.07750170
    55  H          0.21530000       0.05820000       0.87580000
    56  H          0.78470000       0.94180000       0.12420000
    57  C          0.25562000       0.00482190       0.98639830
    58  C          0.74438000      -0.00482190       0.01360170
    59  C          0.34372000       0.02347190       0.05726160
    60  C          0.65628000       0.97652810       0.94273840
    61  H          0.33320000       0.97980000       0.10251900
    62  H          0.66680000       0.02020000       0.89748100
    63  C          0.44722000       0.10655180       0.06680150
    64  C          0.55278000       0.89344820       0.93319850
    65  C          0.39552000       0.22162000       0.85859820
    66  C          0.60448000       0.77838000       0.14140180
    67  H          0.46930000       0.22630000       0.83680000
    68  H          0.53070000       0.77370000       0.16320000
    69  H          0.39430000       0.29330000       0.88288100
    70  H          0.60570000       0.70670000       0.11711900
    71  H          0.33230000       0.19330000       0.80880000
    72  H          0.66770000       0.80670000       0.19120000
    73  C          0.14252000       0.91498000       0.97768000
    74  C          0.85748000       0.08502000       0.02232000
    75  H          0.15130000       0.84670000       0.93980000
    76  H          0.84870000       0.15330000       0.06020000
    77  H          0.07730000       0.93570000       0.95280000
    78  H          0.92270000       0.06430000       0.04720000
    79  H          0.12730000       0.89870000       0.03620000
    80  H          0.87270000       0.10130000       0.96380000
    81  C          0.54062000       0.12702000       0.14474180
    82  C          0.45938000       0.87298000       0.85525820
    83  H          0.62230000       0.14130000       0.12920000
    84  H          0.37770000       0.85870000       0.87080000
    85  H          0.52630000       0.07030000       0.17230000
    86  H          0.47370000       0.92970000       0.82770000
    87  H          0.54130000       0.18930000       0.18530000
    88  H          0.45870000       0.81070000       0.81470000
    89  C          0.87914190       0.71906180       0.29236150
    90  C          0.12085810       0.28093820       0.70763850
    91  C          0.80282000       0.71285190       0.35676150
    92  C          0.19718000       0.28714810       0.64323850
    93  C          0.10252000       0.80182000       0.30061190
    94  C          0.89748000       0.19818000       0.69938810
    95  H          0.10730000       0.74230000       0.25520000
    96  H          0.89270000       0.25770000       0.74480000
    97  H          0.10830000       0.86830000       0.28420000
    98  H          0.89170000       0.13170000       0.71580000
    99  H          0.16530000       0.81030000       0.34830000
   100  H          0.83470000       0.18970000       0.65170000
   101  C          0.84142000       0.76872000       0.52386150
   102  C          0.15858000       0.23128000       0.47613850
   103  C          0.85132000       0.68452000       0.56748170
   104  C          0.14868000       0.31548000       0.43251830
   105  C          0.82882000       0.69782000       0.65549170
   106  C          0.17118000       0.30218000       0.34450830
   107  H          0.83630000       0.64530000       0.68620000
   108  H          0.16370000       0.35470000       0.31380000
   109  C          0.79782000       0.79062000       0.69763170
   110  C          0.20218000       0.20938000       0.30236830
   111  C          0.78282000       0.87002000       0.64959180
   112  C          0.21718000       0.12998000       0.35040820
   113  H          0.75830000       0.93630000       0.67920000
   114  H          0.24170000       0.06370000       0.32080000
   115  C          0.80452000       0.86118190       0.56149170
   116  C          0.19548000       0.13881810       0.43850830
   117  C          0.88544000       0.58273000       0.52282000
   118  C          0.11456000       0.41727000       0.47718000
   119  H          0.96430000       0.60530000       0.52220000
   120  H          0.03570000       0.39470000       0.47780000
   121  H          0.86540000       0.51630000       0.55430000
   122  H          0.13460000       0.48370000       0.44570000
   123  H          0.84940000       0.55630000       0.46230000
   124  H          0.15060000       0.44370000       0.53770000
   125  C          0.78104000       0.80543000       0.79452000
   126  C          0.21896000       0.19457000       0.20548000
   127  H          0.71140000       0.81240000       0.80330000
   128  H          0.28860000       0.18760000       0.19670000
   129  H          0.79640000       0.74940000       0.82130000
   130  H          0.20360000       0.25060000       0.17870000
   131  H          0.82750000       0.87040000       0.82830000
   132  H          0.17250000       0.12960000       0.17170000
   133  C          0.79023000       0.94782000       0.50982000
   134  C          0.20977000       0.05218000       0.49018000
   135  H          0.74140000      -0.00570000       0.53630000
   136  H          0.25860000       0.00570000       0.46370000
   137  H          0.74530000       0.91830000       0.45020000
   138  H          0.25470000       0.08170000       0.54980000
   139  H          0.86640000      -0.01070000       0.50330000
   140  H          0.13360000       0.01070000       0.49670000
   141  S          0.29949500       0.58658500       0.27437400
   142  S          0.70050500       0.41341500       0.72562600
   143  O          0.34599170       0.68452150       0.23864140
   144  O          0.65400830       0.31547850       0.76135860
   145  O          0.19253150       0.59601150       0.31840120
   146  O          0.80746850       0.40398850       0.68159880
   147  O          0.39120150       0.57090150       0.33916110
   148  O          0.60879850       0.42909850       0.66083890
   149  O          0.26606150       0.48860140       0.20066110
   150  O          0.73393850       0.51139860       0.79933890
   151  O          0.02944170       0.38735170       0.14983120
   152  O          0.97055830       0.61264830       0.85016880
   153  H          0.09540000       0.42630000       0.17030000
   154  H          0.90460000       0.57370000       0.82970000
   155  B          0.94848000       0.39892000       0.20812190
   156  B          0.05152000       0.60108000       0.79187810
   157  O          0.97010840       0.47156170       0.28665120
   158  O          0.02989160       0.52843830       0.71334880
   159  H          0.03730000       0.51330000       0.29720000
   160  H          0.96270000       0.48670000       0.70280000
   161  O          0.83637840       0.33056150       0.18283130
   162  O          0.16362160       0.66943850       0.81716870
   163  H          0.79370000       0.33730000       0.22130000
   164  H          0.20630000       0.66270000       0.77870000
   165  O          0.34062000       0.90332000       0.25013160
   166  O          0.65938000       0.09668000       0.74986840
   167  H          0.34730000       0.84030000       0.25230000
   168  H          0.65270000       0.15970000       0.74770000
   169  H          0.40940000       0.94040000       0.28330000
   170  H          0.59060000       0.05960000       0.71670000
   171  N          0.67338000       0.35172000       0.31771180
   172  N          0.32662000       0.64828000       0.68228820
   173  C          0.49847000       0.37233000       0.41062000
   174  C          0.50153000       0.62767000       0.58938000
   175  H          0.45190000       0.41620000       0.38460000
   176  H          0.54810000       0.58380000       0.61540000
   177  H          0.53020000       0.40870000       0.47170000
   178  H          0.46980000       0.59130000       0.52830000
   179  H          0.44750000       0.29980000       0.41030000
   180  H          0.55250000       0.70020000       0.58970000
   181  C          0.59698000       0.36072000       0.35878190
   182  C          0.40302000       0.63928000       0.64121810
   183  N          0.91903000       0.97642000       0.29762000
   184  N          0.08097000       0.02358000       0.70238000
   185  C          0.84514000       0.15293000       0.32853000
   186  C          0.15486000       0.84707000       0.67147000
   187  H          0.75800000       0.13430000       0.31780000
   188  H          0.24200000       0.86570000       0.68220000
   189  H          0.87840000       0.20190000       0.28950000
   190  H          0.12160000       0.79810000       0.71050000
   191  H          0.87060000       0.18950000       0.39040000
   192  H          0.12940000       0.81050000       0.60960000
   193  C          0.88693000       0.05362000       0.31032000
   194  C          0.11307000       0.94638000       0.68968000
   195  N          0.52923000       0.06073000       0.38662000
   196  N          0.47077000       0.93927000       0.61338000
   197  C          0.62094000       0.19103000       0.53462000
   198  C          0.37906000       0.80897000       0.46538000
   199  H          0.70200000       0.23010000       0.52840000
   200  H          0.29800000       0.76990000       0.47160000
   201  H          0.62320000       0.14910000       0.58180000
   202  H          0.37680000       0.85090000       0.41820000
   203  H          0.57270000       0.24380000       0.54950000
   204  H          0.42730000       0.75620000       0.45050000
   205  C          0.56893000       0.11723000       0.45212000
   206  C          0.43107000       0.88277000       0.54788000
