data_ZUDROJ
_symmetry_space_group_name_H-M    'P1'
_symmetry_Int_Tables_number       1
loop_
_symmetry_equiv_pos_site_id
_symmetry_equiv_pos_as_xyz
1 x,y,z
_cell_length_a                   13.8562
_cell_length_b                   14.2992
_cell_length_c                   15.3892
_cell_angle_alpha                108.8065
_cell_angle_beta                 113.3815
_cell_angle_gamma                92.6856
loop_
_atom_site_label
_atom_site_type_symbol
_atom_site_fract_x
_atom_site_fract_y
_atom_site_fract_z
     1  C          0.24503000       0.51803000       0.38063000
     2  C          0.75497000       0.48197000       0.61937000
     3  C          0.15673000       0.47013000       0.38933000
     4  C          0.84327000       0.52987000       0.61067000
     5  H          0.12231700       0.40263800       0.35481400
     6  H          0.87768300       0.59736200       0.64518600
     7  C          0.13343000       0.53973000       0.45533000
     8  C          0.86657000       0.46027000       0.54467000
     9  H          0.07938200       0.53103000       0.47514600
    10  H          0.92061800       0.46897000       0.52485400
    11  C          0.20993000       0.63263000       0.49043000
    12  C          0.79007000       0.36737000       0.50957000
    13  C          0.21923000       0.72903000       0.56653000
    14  C          0.78077000       0.27097000       0.43347000
    15  C          0.15083000       0.74283000       0.61373000
    16  C          0.84917000       0.25717000       0.38627000
    17  H          0.09629200       0.68898000       0.59340200
    18  H          0.90370800       0.31102000       0.40659800
    19  C          0.15954000       0.83333000       0.69013000
    20  C          0.84046000       0.16667000       0.30987000
    21  C          0.24194000       0.91243000       0.72043000
    22  C          0.75806000       0.08757000       0.27957000
    23  H          0.24997900       0.97323000       0.77128500
    24  H          0.75002100       0.02677000       0.22871500
    25  C          0.31233000       0.90263000       0.67623000
    26  C          0.68767000       0.09737000       0.32377000
    27  C          0.29913000       0.81223000       0.59773000
    28  C          0.70087000       0.18777000       0.40227000
    29  C          0.40523000       0.96843000       0.69283000
    30  C          0.59477000       0.03157000       0.30717000
    31  C          0.44183000       0.91543000       0.62183000
    32  C          0.55817000       0.08457000       0.37817000
    33  C          0.53033000       0.96073000       0.61933000
    34  C          0.46967000       0.03927000       0.38067000
    35  C          0.58653000       0.05693000       0.69293000
    36  C          0.41347000       0.94307000       0.30707000
    37  C          0.55223000       0.10773000       0.76683000
    38  C          0.44777000       0.89227000       0.23317000
    39  H          0.59097600       0.17059700       0.81601900
    40  H          0.40902400       0.82940300       0.18398100
    41  C          0.46204000       0.06463000       0.76623000
    42  C          0.53796000       0.93537000       0.23377000
    43  H          0.43813300       0.09860300       0.81406000
    44  H          0.56186700       0.90139700       0.18594000
    45  C          0.67693000       0.08203000       0.67533000
    46  C          0.32307000       0.91797000       0.32467000
    47  C          0.76323000       0.16293000       0.72473000
    48  C          0.23677000       0.83707000       0.27527000
    49  H          0.76791000       0.21647200       0.78100200
    50  H          0.23209000       0.78352800       0.21899800
    51  C          0.84213000       0.16513000       0.69193000
    52  C          0.15787000       0.83487000       0.30807000
    53  C          0.83153000       0.08403000       0.60583000
    54  C          0.16847000       0.91597000       0.39417000
    55  H          0.88393000       0.08583500       0.58273200
    56  H          0.11607000       0.91416500       0.41726800
    57  C          0.74653000       0.00033000       0.55253000
    58  C          0.25347000      -0.00033000       0.44747000
    59  C          0.67013000       0.00123000       0.59053000
    60  C          0.32987000      -0.00123000       0.40947000
    61  C          0.74003000       0.91703000       0.46543000
    62  C          0.25997000       0.08297000       0.53457000
    63  C          0.80884000       0.91333000       0.41383000
    64  C          0.19116000       0.08667000       0.58617000
    65  H          0.86381600       0.96457000       0.42950500
    66  H          0.13618400       0.03543000       0.57049500
    67  C          0.77793000       0.82273000       0.34003000
    68  C          0.22207000       0.17727000       0.65997000
    69  H          0.80745000       0.79803900       0.29443700
    70  H          0.19255000       0.20196100       0.70556300
    71  C          0.68903000       0.76983000       0.34433000
    72  C          0.31097000       0.23017000       0.65567000
    73  C          0.63613000       0.67233000       0.28393000
    74  C          0.36387000       0.32767000       0.71607000
    75  C          0.54413000       0.62263000       0.28863000
    76  C          0.45587000       0.37737000       0.71137000
    77  C          0.47033000       0.67463000       0.31293000
    78  C          0.52967000       0.32537000       0.68707000
    79  H          0.47709000       0.74294400       0.32369300
    80  H          0.52291000       0.25705600       0.67630700
    81  C          0.38763000       0.62733000       0.32113000
    82  C          0.61237000       0.37267000       0.67887000
    83  H          0.33827300       0.66358300       0.33546000
    84  H          0.66172700       0.33641700       0.66454000
    85  C          0.37633000       0.52503000       0.30843000
    86  C          0.62367000       0.47497000       0.69157000
    87  C          0.44704000       0.47323000       0.27934000
    88  C          0.55296000       0.52677000       0.72066000
    89  H          0.43918000       0.40436100       0.26598400
    90  H          0.56082000       0.59563900       0.73401600
    91  C          0.52824000       0.52043000       0.26944000
    92  C          0.47176000       0.47957000       0.73056000
    93  H          0.57376800       0.48276100       0.24928400
    94  H          0.42623200       0.51723900       0.75071600
    95  C          0.29253000       0.47243000       0.32133000
    96  C          0.70747000       0.52757000       0.67867000
    97  C          0.26153000       0.35963000       0.27003000
    98  C          0.73847000       0.64037000       0.72997000
    99  C          0.30463000       0.29943000       0.32433000
   100  C          0.69537000       0.70057000       0.67567000
   101  C          0.27344000       0.19543000       0.27494000
   102  C          0.72656000       0.80457000       0.72506000
   103  H          0.30303900       0.15495300       0.31135000
   104  H          0.69696100       0.84504700       0.68865000
   105  C          0.20104000       0.15013000       0.17504000
   106  C          0.79896000       0.84987000       0.82496000
   107  C          0.15824000       0.21133000       0.12304000
   108  C          0.84176000       0.78867000       0.87696000
   109  H          0.10818900       0.18173900       0.05506700
   110  H          0.89181100       0.81826100       0.94493300
   111  C          0.18694000       0.31593000       0.16803000
   112  C          0.81306000       0.68407000       0.83197000
   113  C          0.38655000       0.34334000       0.43444000
   114  C          0.61345000       0.65666000       0.56556000
   115  H          0.45269100       0.37316300       0.43897100
   116  H          0.54730900       0.62683700       0.56102900
   117  H          0.39839900       0.29071700       0.46132100
   118  H          0.60160100       0.70928300       0.53867900
   119  H          0.36051800       0.39381500       0.47295100
   120  H          0.63948200       0.60618500       0.52704900
   121  C          0.16915000       0.03593000       0.12374000
   122  C          0.83085000       0.96407000       0.87626000
   123  H          0.22401200       0.01007400       0.10546400
   124  H          0.77598800      -0.01007400       0.89453600
   125  H          0.10257500       0.01745300       0.06339400
   126  H          0.89742500       0.98254700       0.93660600
   127  H          0.16073200       0.00792400       0.16983700
   128  H          0.83926800      -0.00792400       0.83016300
   129  C          0.13705000       0.37964000       0.10824000
   130  C          0.86295000       0.62036000       0.89176000
   131  H          0.10829100       0.42853600       0.14517800
   132  H          0.89170900       0.57146400       0.85482200
   133  H          0.08034000       0.33739100       0.04337400
   134  H          0.91966000       0.66260900       0.95662600
   135  H          0.19048100       0.41351500       0.09774200
   136  H          0.80951900       0.58648500       0.90225800
   137  C          0.07925000       0.84094000       0.73504000
   138  C          0.92075000       0.15906000       0.26496000
   139  C          0.96565000       0.81666000       0.65116000
   140  C          0.03435000       0.18334000       0.34884000
   141  H          0.95742000       0.86571800       0.61973300
   142  H          0.04258000       0.13428200       0.38026700
   143  H          0.91531700       0.81790600       0.67973900
   144  H          0.08468300       0.18209400       0.32026100
   145  H          0.95252300       0.75072100       0.60073500
   146  H          0.04747700       0.24927900       0.39926500
   147  C          0.08346000       0.76195000       0.78265000
   148  C          0.91654000       0.23805000       0.21735000
   149  H          0.02791600       0.76314700       0.80523000
   150  H          0.97208400       0.23685300       0.19477000
   151  H          0.15208800       0.77646900       0.83971100
   152  H          0.84791200       0.22353100       0.16028900
   153  H          0.07275300       0.69633100       0.73286600
   154  H          0.92724700       0.30366900       0.26713400
   155  C          0.10076000       0.94275000       0.81656000
   156  C          0.89924000       0.05725000       0.18344000
   157  H          0.09200500      -0.00661000       0.78710300
   158  H          0.90799500       0.00661000       0.21289700
   159  H          0.17279500       0.95706900       0.86865800
   160  H          0.82720500       0.04293100       0.13134200
   161  H          0.05114800       0.94249100       0.84581100
   162  H          0.94885200       0.05750900       0.15418900
   163  C          0.94413000       0.24813000       0.75183000
   164  C          0.05587000       0.75187000       0.24817000
   165  C          0.03414000       0.20834000       0.81484000
   166  C          0.96586000       0.79166000       0.18516000
   167  H          0.09885700       0.25893000       0.85108800
   168  H          0.90114300       0.74107000       0.14891200
   169  H          0.04505100       0.14911500       0.77070200
   170  H          0.95494900       0.85088500       0.22929800
   171  H          0.01572300       0.19141300       0.86257600
   172  H          0.98427700       0.80858700       0.13742400
   173  C          0.97894000       0.27614000       0.67944000
   174  C          0.02106000       0.72386000       0.32056000
   175  H          0.04419600       0.32603200       0.71824000
   176  H          0.95580400       0.67396800       0.28176000
   177  H          0.92378200       0.30267200       0.63864900
   178  H          0.07621800       0.69732800       0.36135100
   179  H         -0.00948000       0.21710400       0.63576700
   180  H          0.00948000       0.78289600       0.36423300
   181  C          0.92864000       0.34294000       0.82105000
   182  C          0.07136000       0.65706000       0.17895000
   183  H          0.91197200       0.32786600       0.87051000
   184  H          0.08802800       0.67213400       0.12949000
   185  H          0.87078100       0.36768600       0.78104500
   186  H          0.12921900       0.63231400       0.21895500
   187  H         -0.00658700       0.39335100       0.85527600
   188  H          0.00658700       0.60664900       0.14472400
   189  C          0.67613000       0.60963000       0.21183000
   190  C          0.32387000       0.39037000       0.78817000
   191  C          0.63114000       0.60393000       0.11084000
   192  C          0.36886000       0.39607000       0.88916000
   193  C          0.66745000       0.54444000       0.04424000
   194  C          0.33255000       0.45556000       0.95576000
   195  H          0.63917400       0.54233700       0.97760400
   196  H          0.36082600       0.45766300       0.02239600
   197  C          0.74305000       0.48863000       0.07234000
   198  C          0.25695000       0.51137000       0.92766000
   199  C          0.78724000       0.49623000       0.17184000
   200  C          0.21276000       0.50377000       0.82816000
   201  H          0.83980800       0.45961000       0.19255000
   202  H          0.16019200       0.54039000       0.80745000
   203  C          0.75584000       0.55713000       0.24323000
   204  C          0.24416000       0.44287000       0.75677000
   205  C          0.54775000       0.66334000       0.07544000
   206  C          0.45225000       0.33666000       0.92456000
   207  H          0.58201100       0.73166300       0.09543500
   208  H          0.41798900       0.26833700       0.90456500
   209  H          0.49915600       0.66256700       0.10570800
   210  H          0.50084400       0.33743300       0.89429200
   211  H          0.50863400       0.63386000       0.00252100
   212  H          0.49136600       0.36614000      -0.00252100
   213  C          0.77785000       0.41984000      -0.00315000
   214  C          0.22215000       0.58016000       0.00315000
   215  H          0.84660200       0.45116100       0.00785500
   216  H          0.15339800       0.54883900      -0.00785500
   217  H          0.72610100       0.40801200       0.92864200
   218  H          0.27389900       0.59198800       0.07135800
   219  H          0.78271700       0.35680400       0.00641600
   220  H          0.21728300       0.64319600      -0.00641600
   221  C          0.80894000       0.56304000       0.35154000
   222  C          0.19106000       0.43696000       0.64846000
   223  H          0.85056100       0.62967200       0.39520700
   224  H          0.14943900       0.37032800       0.60479300
   225  H          0.85500700       0.51496700       0.35637800
   226  H          0.14499300       0.48503300       0.64362200
   227  H          0.75502400       0.54803600       0.37223200
   228  H          0.24497600       0.45196400       0.62776800
   229  N          0.27503000       0.61972000       0.44632000
   230  N          0.72497000       0.38028000       0.55368000
   231  N          0.37543000       0.82052000       0.56382000
   232  N          0.62457000       0.17948000       0.43618000
   233  H          0.38133300       0.77477300       0.51475000
   234  H          0.61866700       0.22522700       0.48525000
   235  N          0.58142000       0.92822000       0.55742000
   236  N          0.41858000       0.07178000       0.44258000
   237  H          0.56117000       0.87178000       0.50648800
   238  H          0.43883000       0.12822000       0.49351200
   239  N          0.66823000       0.83222000       0.42362000
   240  N          0.33177000       0.16778000       0.57638000
   241  C          0.46341100       0.20691000       0.14929000
   242  C          0.53658900       0.79309000       0.85071000
   243  H          0.48137700       0.18047800       0.20315600
   244  H          0.51862300       0.81952200       0.79684400
   245  H          0.42216900       0.25843800       0.16181000
   246  H          0.57783100       0.74156200       0.83819000
   247  C          0.55971300       0.25268000       0.15508000
   248  C          0.44028700       0.74732000       0.84492000
   249  H          0.62030700       0.26643000       0.22029300
   250  H          0.37969300       0.73357000       0.77970700
   251  H          0.55312000       0.31377800       0.14043900
   252  H          0.44688000       0.68622200       0.85956100
   253  C          0.56569000       0.16681200       0.07001100
   254  C          0.43431000       0.83318800       0.92998900
   255  H          0.60042900       0.19147600       0.03582400
   256  H          0.39957100       0.80852400       0.96417600
   257  H          0.60396100       0.11922500       0.09560300
   258  H          0.39603900       0.88077500       0.90439700
   259  O          0.45081000       0.12006000       0.00067000
   260  O          0.54919000       0.87994000      -0.00067000
   261  C          0.40111200       0.13181200       0.05961100
   262  C          0.59888800       0.86818800       0.94038900
   263  H          0.38941800       0.06989400       0.07043800
   264  H          0.61058200       0.93010600       0.92956200
   265  H          0.33196300       0.14865400       0.02785100
   266  H          0.66803700       0.85134600       0.97214900
