data_ZUDSIC
_symmetry_space_group_name_H-M    'P1'
_symmetry_Int_Tables_number       1
loop_
_symmetry_equiv_pos_site_id
_symmetry_equiv_pos_as_xyz
1 x,y,z
_cell_length_a                   7.62914
_cell_length_b                   21.01188
_cell_length_c                   10.96906
_cell_angle_alpha                90.0
_cell_angle_beta                 98.9504
_cell_angle_gamma                90.0
loop_
_atom_site_label
_atom_site_type_symbol
_atom_site_fract_x
_atom_site_fract_y
_atom_site_fract_z
     1  N          0.57216180       0.23511600       0.32536120
     2  N          0.92783820       0.73511600       0.17463880
     3  N          0.42783820       0.76488400       0.67463880
     4  N          0.07216180       0.26488400       0.82536120
     5  C          0.56792000       0.29920700       0.31483150
     6  C          0.93208000       0.79920700       0.18516850
     7  C          0.43208000       0.70079300       0.68516850
     8  C          0.06792000       0.20079300       0.81483150
     9  N          0.66252000       0.33208700       0.40692140
    10  N          0.83748000       0.83208700       0.09307860
    11  N          0.33748000       0.66791300       0.59307860
    12  N          0.16252000       0.16791300       0.90692140
    13  H          0.72330000       0.31181000       0.47120000
    14  H          0.77670000       0.81181000       0.02880000
    15  H          0.27670000       0.68819000       0.52880000
    16  H          0.22330000       0.18819000       0.97120000
    17  H          0.66330000       0.37201100       0.40231900
    18  H          0.83670000       0.87201100       0.09768100
    19  H          0.33670000       0.62798900       0.59768100
    20  H          0.16330000       0.12798900       0.90231900
    21  N          0.47915180       0.33242600       0.22077120
    22  N          0.02084820       0.83242600       0.27922880
    23  N          0.52084820       0.66757400       0.77922880
    24  N         -0.02084820       0.16757400       0.72077120
    25  C          0.38562000       0.29598700       0.13273150
    26  C          0.11438000       0.79598700       0.36726850
    27  C          0.61438000       0.70401300       0.86726850
    28  C          0.88562000       0.20401300       0.63273150
    29  N          0.29522000       0.32570700       0.03575140
    30  N          0.20478000       0.82570700       0.46424860
    31  N          0.70478000       0.67429300       0.96424860
    32  N          0.79522000       0.17429300       0.53575140
    33  H          0.23730000       0.30301000       0.97280000
    34  H          0.26270000       0.80301000       0.52720000
    35  H          0.76270000       0.69699000       0.02720000
    36  H          0.73730000       0.19699000       0.47280000
    37  H          0.29930000       0.36761100       0.03221900
    38  H          0.20070000       0.86761100       0.46778100
    39  H          0.70070000       0.63238900       0.96778100
    40  H          0.79930000       0.13238900       0.53221900
    41  N          0.37670180       0.23186600       0.13293120
    42  N          0.12329820       0.73186600       0.36706880
    43  N          0.62329820       0.76813400       0.86706880
    44  N          0.87670180       0.26813400       0.63293120
    45  C          0.47482000       0.20421700       0.23057140
    46  C          0.02518000       0.70421700       0.26942860
    47  C          0.52518000       0.79578300       0.76942860
    48  C          0.97482000       0.29578300       0.73057140
    49  N          0.47492000       0.14032700       0.23526140
    50  N          0.02508000       0.64032700       0.26473860
    51  N          0.52508000       0.85967300       0.76473860
    52  N          0.97492000       0.35967300       0.73526140
    53  H          0.42030000       0.11821000       0.16820000
    54  H          0.07970000       0.61821000       0.33180000
    55  H          0.57970000       0.88179000       0.83180000
    56  H          0.92030000       0.38179000       0.66820000
    57  H          0.54930000       0.12091000       0.29220000
    58  H          0.95070000       0.62091000       0.20780000
    59  H          0.45070000       0.87909000       0.70780000
    60  H          0.04930000       0.37909000       0.79220000
    61  O          0.82290190       0.44772600       0.52417130
    62  O          0.67709810       0.94772600       0.97582870
    63  O          0.17709810       0.55227400       0.47582870
    64  O          0.32290190       0.05227400       0.02417130
    65  H          0.81730000       0.48775000       0.53420000
    66  H          0.68270000       0.98775000       0.96580000
    67  H          0.18270000       0.51225000       0.46580000
    68  H          0.31730000       0.01225000       0.03420000
    69  H          0.91620000       0.44181000       0.49220000
    70  H          0.58380000       0.94181000       0.00780000
    71  H          0.08380000       0.55819000       0.50780000
    72  H          0.41620000       0.05819000      -0.00780000
    73  N          0.75492000       0.67951700       0.49912140
    74  N          0.74508000       0.17951700       0.00087860
    75  N          0.24508000       0.32048300       0.50087860
    76  N          0.25492000       0.82048300      -0.00087860
    77  C          0.86353000       0.71339900       0.59756190
    78  C          0.63647000       0.21339900       0.90243810
    79  C          0.13647000       0.28660100       0.40243810
    80  C          0.36353000       0.78660100       0.09756190
    81  H          0.93300000       0.68290000       0.65290000
    82  H          0.56700000       0.18290000       0.84710000
    83  H          0.06700000       0.31710000       0.34710000
    84  H          0.43300000       0.81710000       0.15290000
    85  H          0.78740000       0.73820000       0.64390000
    86  H          0.71260000       0.23820000       0.85610000
    87  H          0.21260000       0.26180000       0.35610000
    88  H          0.28740000       0.76180000       0.14390000
    89  H          0.94400000       0.74210000       0.56270000
    90  H          0.55600000       0.24210000       0.93730000
    91  H          0.05600000       0.25790000       0.43730000
    92  H          0.44400000       0.75790000       0.06270000
    93  C          0.75042000       0.61649800       0.48894170
    94  C          0.74958000       0.11649800       0.01105830
    95  C          0.24958000       0.38350200       0.51105830
    96  C          0.25042000       0.88350200      -0.01105830
    97  O          0.84431180       0.57929600       0.55929130
    98  O          0.65568820       0.07929600       0.94070870
    99  O          0.15568820       0.42070400       0.44070870
   100  O          0.34431180       0.92070400       0.05929130
   101  C          0.61583000       0.59790900       0.38030190
   102  C          0.88417000       0.09790900       0.11969810
   103  C          0.38417000       0.40209100       0.61969810
   104  C          0.11583000       0.90209100       0.88030190
   105  H          0.51460000       0.57550000       0.40770000
   106  H         -0.01460000       0.07550000       0.09230000
   107  H          0.48540000       0.42450000       0.59230000
   108  H          0.01460000       0.92450000       0.90770000
   109  H          0.66960000       0.56960000       0.32410000
   110  H          0.83040000       0.06960000       0.17590000
   111  H          0.33040000       0.43040000       0.67590000
   112  H          0.16960000       0.93040000       0.82410000
   113  C          0.55513000       0.66021100       0.31612000
   114  C          0.94487000       0.16021100       0.18388000
   115  C          0.44487000       0.33978900       0.68388000
   116  C          0.05513000       0.83978900       0.81612000
   117  H          0.42400000       0.66310000       0.30200000
   118  H          0.07600000       0.16310000       0.19800000
   119  H          0.57600000       0.33690000       0.69800000
   120  H          0.92400000       0.83690000       0.80200000
   121  H          0.59800000       0.66350000       0.23570000
   122  H          0.90200000       0.16350000       0.26430000
   123  H          0.40200000       0.33650000       0.76430000
   124  H          0.09800000       0.83650000       0.73570000
   125  C          0.63573000       0.71267900       0.40343190
   126  C          0.86427000       0.21267900       0.09656810
   127  C          0.36427000       0.28732100       0.59656810
   128  C          0.13573000       0.78732100       0.90343190
   129  H          0.70170000       0.74360000       0.35970000
   130  H          0.79830000       0.24360000       0.14030000
   131  H          0.29830000       0.25640000       0.64030000
   132  H          0.20170000       0.75640000       0.85970000
   133  H          0.54230000       0.73560000       0.43910000
   134  H          0.95770000       0.23560000       0.06090000
   135  H          0.45770000       0.26440000       0.56090000
   136  H          0.04230000       0.76440000       0.93910000
   137  N          0.74542000       0.96215300       0.51588150
   138  N          0.75458000       0.46215300       0.98411850
   139  N          0.25458000       0.03784700       0.48411850
   140  N          0.24542000       0.53784700       0.01588150
   141  C          0.82903000       0.98512880       0.63412000
   142  C          0.67097000       0.48512880       0.86588000
   143  C          0.17097000       0.01487120       0.36588000
   144  C          0.32903000       0.51487120       0.13412000
   145  H          0.95460000       0.97310000       0.64730000
   146  H          0.54540000       0.47310000       0.85270000
   147  H          0.04540000       0.02690000       0.35270000
   148  H          0.45460000       0.52690000       0.14730000
   149  H          0.77070000       0.96640000       0.69910000
   150  H          0.72930000       0.46640000       0.80090000
   151  H          0.22930000       0.03360000       0.30090000
   152  H          0.27070000       0.53360000       0.19910000
   153  H          0.81860000       0.03160000       0.63650000
   154  H          0.68140000       0.53160000       0.86350000
   155  H          0.18140000       0.96840000       0.36350000
   156  H          0.31860000       0.46840000       0.13650000
   157  C          0.69462000      -0.00107800       0.41834170
   158  C          0.80538000       0.49892200       0.08165830
   159  C          0.30538000       0.00107800       0.58165830
   160  C          0.19462000       0.50107800       0.91834170
   161  O          0.70162000       0.05755600       0.41793120
   162  O          0.79838000       0.55755600       0.08206880
   163  O          0.29838000       0.94244400       0.58206880
   164  O          0.20162000       0.44244400       0.91793120
   165  C          0.63523000       0.95728100       0.30872000
   166  C          0.86477000       0.45728100       0.19128000
   167  C          0.36477000       0.04271900       0.69128000
   168  C          0.13523000       0.54271900       0.80872000
   169  H          0.72400000       0.95730000       0.25180000
   170  H          0.77600000       0.45730000       0.24820000
   171  H          0.27600000       0.04270000       0.74820000
   172  H          0.22400000       0.54270000       0.75180000
   173  H          0.52000000       0.97210000       0.26330000
   174  H         -0.02000000       0.47210000       0.23670000
   175  H          0.48000000       0.02790000       0.73670000
   176  H          0.02000000       0.52790000       0.76330000
   177  C          0.61753000       0.89163100       0.36202000
   178  C          0.88247000       0.39163100       0.13798000
   179  C          0.38247000       0.10836900       0.63798000
   180  C          0.11753000       0.60836900       0.86202000
   181  H          0.49250000       0.88250000       0.37000000
   182  H          0.00750000       0.38250000       0.13000000
   183  H          0.50750000       0.11750000       0.63000000
   184  H         -0.00750000       0.61750000       0.87000000
   185  H          0.66040000       0.85860000       0.30940000
   186  H          0.83960000       0.35860000       0.19060000
   187  H          0.33960000       0.14140000       0.69060000
   188  H          0.16040000       0.64140000       0.80940000
   189  C          0.73213000       0.89407100       0.48712000
   190  C          0.76787000       0.39407100       0.01288000
   191  C          0.26787000       0.10592900       0.51288000
   192  C          0.23213000       0.60592900      -0.01288000
   193  H          0.67590000       0.87080000       0.54930000
   194  H          0.82410000       0.37080000       0.95070000
   195  H          0.32410000       0.12920000       0.45070000
   196  H          0.17590000       0.62920000       0.04930000
   197  H          0.85060000       0.87560000       0.48390000
   198  H          0.64940000       0.37560000       0.01610000
   199  H          0.14940000       0.12440000       0.51610000
   200  H          0.35060000       0.62440000       0.98390000
