data_ZUFPEX
_symmetry_space_group_name_H-M    'P1'
_symmetry_Int_Tables_number       1
loop_
_symmetry_equiv_pos_site_id
_symmetry_equiv_pos_as_xyz
1 x,y,z
_cell_length_a                   6.87965
_cell_length_b                   16.175912
_cell_length_c                   14.53609
_cell_angle_alpha                90.0
_cell_angle_beta                 102.8123
_cell_angle_gamma                90.0
loop_
_atom_site_label
_atom_site_type_symbol
_atom_site_fract_x
_atom_site_fract_y
_atom_site_fract_z
     1  Br         0.29092600       0.61221200       0.95529700
     2  Br         0.70907400       0.11221200       0.54470300
     3  Br         0.70907400       0.38778800       0.04470300
     4  Br         0.29092600       0.88778800       0.45529700
     5  C          0.40916000       0.51403000       0.01773000
     6  C          0.59084000       0.01403000       0.48227000
     7  C          0.59084000       0.48597000       0.98227000
     8  C          0.40916000       0.98597000       0.51773000
     9  F          0.46374000       0.52717160       0.11116150
    10  F          0.53626000       0.02717160       0.38883850
    11  F          0.53626000       0.47282840       0.88883850
    12  F          0.46374000       0.97282840       0.61116150
    13  F          0.27344000       0.45307160       0.00396190
    14  F          0.72656000       0.95307160       0.49603810
    15  F          0.72656000       0.54692840      -0.00396190
    16  F          0.27344000       0.04692840       0.50396190
    17  Br         0.61893600       0.13027300       0.05025300
    18  Br         0.38106400       0.63027300       0.44974700
    19  Br         0.38106400       0.86972700       0.94974700
    20  Br         0.61893600       0.36972700       0.55025300
    21  F          0.46094000       0.04889160       0.89030840
    22  F          0.53906000       0.54889160       0.60969160
    23  F          0.53906000       0.95110840       0.10969160
    24  F          0.46094000       0.45110840       0.39030840
    25  F          0.27084000       0.04935170      -0.00872000
    26  F          0.72916000       0.54935170       0.50872000
    27  F          0.72916000       0.95064830       0.00872000
    28  F          0.27084000       0.45064830       0.49128000
    29  C          0.46136000       0.04233000       0.98217000
    30  C          0.53864000       0.54233000       0.51783000
    31  C          0.53864000       0.95767000       0.01783000
    32  C          0.46136000       0.45767000       0.48217000
    33  P          0.02549150       0.27737600       0.73451700
    34  P          0.97450850       0.77737600       0.76548300
    35  P          0.97450850       0.72262400       0.26548300
    36  P          0.02549150       0.22262400       0.23451700
    37  O          0.87836000       0.24959160       0.64952190
    38  O          0.12164000       0.74959160       0.85047810
    39  O          0.12164000       0.75040840       0.35047810
    40  O          0.87836000       0.25040840       0.14952190
    41  N          0.04965000       0.37682000       0.75732000
    42  N          0.95035000       0.87682000       0.74268000
    43  N          0.95035000       0.62318000       0.24268000
    44  N          0.04965000       0.12318000       0.25732000
    45  N          0.25135000       0.25032000       0.72533000
    46  N          0.74865000       0.75032000       0.77467000
    47  N          0.74865000       0.74968000       0.27467000
    48  N          0.25135000       0.24968000       0.22533000
    49  N          0.96025000       0.23982000       0.83032000
    50  N          0.03975000       0.73982000       0.66968000
    51  N          0.03975000       0.76018000       0.16968000
    52  N          0.96025000       0.26018000       0.33032000
    53  C          0.08276000       0.25683000       0.92413000
    54  C          0.91724000       0.75683000       0.57587000
    55  C          0.91724000       0.74317000       0.07587000
    56  C          0.08276000       0.24317000       0.42413000
    57  H          0.00160000       0.25050000       0.97120000
    58  H         -0.00160000       0.75050000       0.52880000
    59  H         -0.00160000       0.74950000       0.02880000
    60  H          0.00160000       0.24950000       0.47120000
    61  H          0.13410000       0.31340000       0.92610000
    62  H          0.86590000       0.81340000       0.57390000
    63  H          0.86590000       0.68660000       0.07390000
    64  H          0.13410000       0.18660000       0.42610000
    65  H          0.19450000       0.21780000       0.93790000
    66  H          0.80550000       0.71780000       0.56210000
    67  H          0.80550000       0.78220000       0.06210000
    68  H          0.19450000       0.28220000       0.43790000
    69  C          0.88474000       0.15493000       0.82213000
    70  C          0.11526000       0.65493000       0.67787000
    71  C          0.11526000       0.84507000       0.17787000
    72  C          0.88474000       0.34507000       0.32213000
    73  H         -0.00400000       0.11640000       0.82530000
    74  H          0.00400000       0.61640000       0.67470000
    75  H          0.00400000       0.88360000       0.17470000
    76  H         -0.00400000       0.38360000       0.32530000
    77  H          0.78930000       0.14820000       0.76160000
    78  H          0.21070000       0.64820000       0.73840000
    79  H          0.21070000       0.85180000       0.23840000
    80  H          0.78930000       0.35180000       0.26160000
    81  H          0.81850000       0.14340000       0.87380000
    82  H          0.18150000       0.64340000       0.62620000
    83  H          0.18150000       0.85660000       0.12620000
    84  H          0.81850000       0.35660000       0.37380000
    85  C          0.90483000       0.42243000       0.79723000
    86  C          0.09517000       0.92243000       0.70277000
    87  C          0.09517000       0.57757000       0.20277000
    88  C          0.90483000       0.07757000       0.29723000
    89  H          0.97390000       0.46480000       0.84050000
    90  H          0.02610000       0.96480000       0.65950000
    91  H          0.02610000       0.53520000       0.15950000
    92  H          0.97390000       0.03520000       0.34050000
    93  H          0.83600000       0.38420000       0.83150000
    94  H          0.16400000       0.88420000       0.66850000
    95  H          0.16400000       0.61580000       0.16850000
    96  H          0.83600000       0.11580000       0.33150000
    97  H          0.80740000       0.44880000       0.74620000
    98  H          0.19260000       0.94880000       0.75380000
    99  H          0.19260000       0.55120000       0.25380000
   100  H          0.80740000       0.05120000       0.24620000
   101  C          0.28277000       0.18163000       0.66543000
   102  C          0.71723000       0.68163000       0.83457000
   103  C          0.71723000       0.81837000       0.33457000
   104  C          0.28277000       0.31837000       0.16543000
   105  H          0.38340000       0.19700000       0.63030000
   106  H          0.61660000       0.69700000       0.86970000
   107  H          0.61660000       0.80300000       0.36970000
   108  H          0.38340000       0.30300000       0.13030000
   109  H          0.15710000       0.16850000       0.62100000
   110  H          0.84290000       0.66850000       0.87900000
   111  H          0.84290000       0.83150000       0.37900000
   112  H          0.15710000       0.33150000       0.12100000
   113  H          0.32850000       0.13320000       0.70470000
   114  H          0.67150000       0.63320000       0.79530000
   115  H          0.67150000       0.86680000       0.29530000
   116  H          0.32850000       0.36680000       0.20470000
   117  C          0.14707000       0.42913000       0.69803000
   118  C          0.85293000       0.92913000       0.80197000
   119  C          0.85293000       0.57087000       0.30197000
   120  C          0.14707000       0.07087000       0.19803000
   121  H          0.04590000       0.45220000       0.64600000
   122  H          0.95410000       0.95220000       0.85400000
   123  H          0.95410000       0.54780000       0.35400000
   124  H          0.04590000       0.04780000       0.14600000
   125  H          0.24160000       0.39580000       0.67240000
   126  H          0.75840000       0.89580000       0.82760000
   127  H          0.75840000       0.60420000       0.32760000
   128  H          0.24160000       0.10420000       0.17240000
   129  H          0.21830000       0.47430000       0.73610000
   130  H          0.78170000       0.97430000       0.76390000
   131  H          0.78170000       0.52570000       0.26390000
   132  H          0.21830000       0.02570000       0.23610000
   133  C          0.43166000       0.27443000       0.79393000
   134  C          0.56834000       0.77443000       0.70607000
   135  C          0.56834000       0.72557000       0.20607000
   136  C          0.43166000       0.22557000       0.29393000
   137  H          0.47180000       0.22960000       0.83950000
   138  H          0.52820000       0.72960000       0.66050000
   139  H          0.52820000       0.77040000       0.16050000
   140  H          0.47180000       0.27040000       0.33950000
   141  H          0.40490000       0.32440000       0.82710000
   142  H          0.59510000       0.82440000       0.67290000
   143  H          0.59510000       0.67560000       0.17290000
   144  H          0.40490000       0.17560000       0.32710000
   145  H          0.53890000       0.28540000       0.76110000
   146  H          0.46110000       0.78540000       0.73890000
   147  H          0.46110000       0.71460000       0.23890000
   148  H          0.53890000       0.21460000       0.26110000
