data_ZUFQAU
_symmetry_space_group_name_H-M    'P1'
_symmetry_Int_Tables_number       1
loop_
_symmetry_equiv_pos_site_id
_symmetry_equiv_pos_as_xyz
1 x,y,z
_cell_length_a                   6.8495
_cell_length_b                   10.3875
_cell_length_c                   15.2985
_cell_angle_alpha                106.2515
_cell_angle_beta                 91.1025
_cell_angle_gamma                97.9425
loop_
_atom_site_label
_atom_site_type_symbol
_atom_site_fract_x
_atom_site_fract_y
_atom_site_fract_z
     1  O          0.27922000       0.53471150       0.58922900
     2  O          0.72078000       0.46528850       0.41077100
     3  C          0.43203000       0.60082000       0.63202130
     4  C          0.56797000       0.39918000       0.36797870
     5  N          0.55222000       0.69009170       0.60074110
     6  N          0.44778000       0.30990830       0.39925890
     7  C          0.73983000       0.75962000       0.63983130
     8  C          0.26017000       0.24038000       0.36016870
     9  C          0.77753000       0.82162000       0.73368130
    10  C          0.22247000       0.17838000       0.26631870
    11  N          0.63162000       0.83079170       0.79840110
    12  N          0.36838000       0.16920830       0.20159890
    13  C          0.49953000       0.72842000       0.79353130
    14  C          0.50047000       0.27158000       0.20646870
    15  C          0.49753000       0.59102000       0.72519130
    16  C          0.50247000       0.40898000       0.27480870
    17  C          0.37123000       0.47882000       0.75211140
    18  C          0.62877000       0.52118000       0.24788860
    19  O          0.18072000       0.51316150       0.77893100
    20  O          0.81928000       0.48683850       0.22106900
    21  C          0.18413000       0.63472000       0.84514140
    22  C          0.81587000       0.36528000       0.15485860
    23  C          0.33703000       0.74152000       0.85553130
    24  C          0.66297000       0.25848000       0.14446870
    25  C          0.33013000       0.86292000       0.92401140
    26  C          0.66987000       0.13708000       0.07598860
    27  C          0.17393000       0.87562000       0.98069150
    28  C          0.82607000       0.12438000       0.01930850
    29  C          0.02064000       0.76873000       0.96758160
    30  C         -0.02064000       0.23127000       0.03241840
    31  C          0.02343000       0.64772000       0.89986160
    32  C         -0.02343000       0.35228000       0.10013840
    33  H          0.91520000       0.57420000       0.89060000
    34  H          0.08480000       0.42580000       0.10940000
    35  H          0.91220000       0.77880000       0.00590000
    36  H          0.08780000       0.22120000      -0.00590000
    37  H          0.17240000       0.95810000       0.02850000
    38  H          0.82760000       0.04190000       0.97150000
    39  H          0.43880000       0.93730000       0.92980000
    40  H          0.56120000       0.06270000       0.07020000
    41  O          0.47482000       0.45320150       0.82336100
    42  O          0.52518000       0.54679850       0.17663900
    43  C          0.38224000       0.33623000       0.84751190
    44  C          0.61776000       0.66377000       0.15248810
    45  C          0.52175000       0.30304000       0.91172000
    46  C          0.47825000       0.69696000       0.08828000
    47  H          0.46190000       0.22380000       0.92880000
    48  H          0.53810000       0.77620000       0.07120000
    49  H          0.55340000       0.38050000       0.96550000
    50  H          0.44660000       0.61950000       0.03450000
    51  H          0.64480000       0.28430000       0.88240000
    52  H          0.35520000       0.71570000       0.11760000
    53  H          0.26150000       0.35740000       0.87660000
    54  H          0.73850000       0.64260000       0.12340000
    55  H          0.34570000       0.25820000       0.79370000
    56  H          0.65430000       0.74180000       0.20630000
    57  H          0.34240000       0.39610000       0.69970000
    58  H          0.65760000       0.60390000       0.30030000
    59  H          0.63120000       0.57280000       0.72330000
    60  H          0.36880000       0.42720000       0.27670000
    61  C          0.96693000       0.89052000       0.76521140
    62  C          0.03307000       0.10948000       0.23478860
    63  C          0.11533000       0.89812000       0.70682150
    64  C          0.88467000       0.10188000       0.29317850
    65  C          0.07513000       0.84022000       0.61346150
    66  C          0.92487000       0.15978000       0.38653850
    67  C          0.88983000       0.77212000       0.58070140
    68  C          0.11017000       0.22788000       0.41929860
    69  H          0.86110000       0.73360000       0.51800000
    70  H          0.13890000       0.26640000       0.48200000
    71  H          0.17670000       0.84800000       0.57320000
    72  H          0.82330000       0.15200000       0.42680000
    73  H          0.24600000       0.94350000       0.72990000
    74  H          0.75400000       0.05650000       0.27010000
    75  H         -0.00550000       0.93050000       0.82810000
    76  H          0.00550000       0.06950000       0.17190000
    77  H          0.51430000       0.70030000       0.54970000
    78  H          0.48570000       0.29970000       0.45030000
    79  N          0.42112000       0.73683180       0.43095110
    80  N          0.57888000       0.26316820       0.56904890
    81  C          0.24243000       0.68252000       0.38946140
    82  C          0.75757000       0.31748000       0.61053860
    83  N          0.15513000       0.56499180       0.40443120
    84  N          0.84487000       0.43500820       0.59556880
    85  H          0.03240000       0.53510000       0.38610000
    86  H          0.96760000       0.46490000       0.61390000
    87  H          0.19840000       0.53960000       0.44970000
    88  H          0.80160000       0.46040000       0.55030000
    89  C          0.15103000       0.74222000       0.33149170
    90  C          0.84897000       0.25778000       0.66850830
    91  C          0.24424000       0.85962000       0.31827180
    92  C          0.75576000       0.14038000       0.68172820
    93  C          0.42883000       0.91722000       0.36167160
    94  C          0.57117000       0.08278000       0.63832840
    95  C          0.50913000       0.85202000       0.41599150
    96  C          0.49087000       0.14798000       0.58400850
    97  H          0.63610000       0.88750000       0.44460000
    98  H          0.36390000       0.11250000       0.55540000
    99  H          0.49620000      -0.00170000       0.35440000
   100  H          0.50380000       0.00170000       0.64560000
   101  H          0.18400000       0.90030000       0.27810000
   102  H          0.81600000       0.09970000       0.72190000
   103  H          0.02780000       0.70120000       0.30270000
   104  H          0.97220000       0.29880000       0.69730000
