data_ZUHLAS
_symmetry_space_group_name_H-M    'P1'
_symmetry_Int_Tables_number       1
loop_
_symmetry_equiv_pos_site_id
_symmetry_equiv_pos_as_xyz
1 x,y,z
_cell_length_a                   14.58576
_cell_length_b                   11.30184
_cell_length_c                   16.74946
_cell_angle_alpha                90.0
_cell_angle_beta                 107.63801
_cell_angle_gamma                90.0
loop_
_atom_site_label
_atom_site_type_symbol
_atom_site_fract_x
_atom_site_fract_y
_atom_site_fract_z
     1  S          0.41870300       0.51805400       0.19351300
     2  S          0.58129700       0.01805400       0.30648700
     3  S          0.58129700       0.48194600       0.80648700
     4  S          0.41870300       0.98194600       0.69351300
     5  S          0.04903400       0.74620500       0.28323300
     6  S          0.95096600       0.24620500       0.21676700
     7  S          0.95096600       0.25379500       0.71676700
     8  S          0.04903400       0.75379500       0.78323300
     9  O          0.34201100       0.74297110       0.25277900
    10  O          0.65798900       0.24297110       0.24722100
    11  O          0.65798900       0.25702890       0.74722100
    12  O          0.34201100       0.75702890       0.75277900
    13  O          0.22287130       0.52078140       0.03682900
    14  O          0.77712870       0.02078140       0.46317100
    15  O          0.77712870       0.47921860       0.96317100
    16  O          0.22287130       0.97921860       0.53682900
    17  O          0.12408120       0.38137140       0.05718900
    18  O          0.87591880       0.88137140       0.44281100
    19  O          0.87591880       0.61862860       0.94281100
    20  O          0.12408120       0.11862860       0.55718900
    21  O          0.44867100       0.61554120       0.15371800
    22  O          0.55132900       0.11554120       0.34628200
    23  O          0.55132900       0.38445880       0.84628200
    24  O          0.44867100       0.88445880       0.65371800
    25  O          0.40756100       0.40391110       0.15549800
    26  O          0.59243900       0.90391110       0.34450200
    27  O          0.59243900       0.59608890       0.84450200
    28  O          0.40756100       0.09608890       0.65549800
    29  O          0.02994120       0.86571140       0.30050110
    30  O          0.97005880       0.36571140       0.19949890
    31  O          0.97005880       0.13428860       0.69949890
    32  O          0.02994120       0.63428860       0.80050110
    33  O          0.97934900       0.67932180       0.22224100
    34  O          0.02065100       0.17932180       0.27775900
    35  O          0.02065100       0.32067820       0.77775900
    36  O          0.97934900       0.82067820       0.72224100
    37  N          0.31066100       0.54999120       0.20389900
    38  N          0.68933900       0.04999120       0.29610100
    39  N          0.68933900       0.45000880       0.79610100
    40  N          0.31066100       0.95000880       0.70389900
    41  N          0.14613130       0.75227160       0.25319110
    42  N          0.85386870       0.25227160       0.24680890
    43  N          0.85386870       0.24772840       0.74680890
    44  N          0.14613130       0.74772840       0.75319110
    45  C          0.28847130       0.66008150       0.23053100
    46  C          0.71152870       0.16008150       0.26946900
    47  C          0.71152870       0.33991850       0.76946900
    48  C          0.28847130       0.83991850       0.73053100
    49  C          0.18597130       0.65310150       0.22756100
    50  C          0.81402870       0.15310150       0.27243900
    51  C          0.81402870       0.34689850       0.77243900
    52  C          0.18597130       0.84689850       0.72756100
    53  C          0.15061130       0.54769160       0.19964110
    54  C          0.84938870       0.04769160       0.30035890
    55  C          0.84938870       0.45230840       0.80035890
    56  C          0.15061130       0.95230840       0.69964110
    57  H          0.08810000       0.52340000       0.19410000
    58  H          0.91190000       0.02340000       0.30590000
    59  H          0.91190000       0.47660000       0.80590000
    60  H          0.08810000       0.97660000       0.69410000
    61  C          0.22530130       0.47209150       0.17792110
    62  C          0.77469870       0.97209150       0.32207890
    63  C          0.77469870       0.52790850       0.82207890
    64  C          0.22530130       0.02790850       0.67792110
    65  C          0.19320140       0.46120160       0.08203120
    66  C          0.80679860       0.96120160       0.41796880
    67  C          0.80679860       0.53879840       0.91796880
    68  C          0.19320140       0.03879840       0.58203120
    69  C          0.08002000       0.37233000       0.96660850
    70  C          0.91998000       0.87233000       0.53339150
    71  C          0.91998000       0.62767000       0.03339150
    72  C          0.08002000       0.12767000       0.46660850
    73  H          0.12420000       0.33510000       0.94210000
    74  H          0.87580000       0.83510000       0.55790000
    75  H          0.87580000       0.66490000       0.05790000
    76  H          0.12420000       0.16490000       0.44210000
    77  H          0.06450000       0.45000000       0.94330000
    78  H          0.93550000       0.95000000       0.55670000
    79  H          0.93550000       0.55000000       0.05670000
    80  H          0.06450000       0.05000000       0.44330000
    81  H          0.02240000       0.32580000       0.95490000
    82  H          0.97760000       0.82580000       0.54510000
    83  H          0.97760000       0.67420000       0.04510000
    84  H          0.02240000       0.17420000       0.45490000
    85  C          0.23892160       0.35330170       0.22351120
    86  C          0.76107840       0.85330170       0.27648880
    87  C          0.76107840       0.64669830       0.77648880
    88  C          0.23892160       0.14669830       0.72351120
    89  H          0.28420000       0.30610000       0.20610000
    90  H          0.71580000       0.80610000       0.29390000
    91  H          0.71580000       0.69390000       0.79390000
    92  H          0.28420000       0.19390000       0.70610000
    93  H          0.17840000       0.31270000       0.21020000
    94  H          0.82160000       0.81270000       0.28980000
    95  H          0.82160000       0.68730000       0.78980000
    96  H          0.17840000       0.18730000       0.71020000
    97  H          0.26280000       0.36640000       0.28290000
    98  H          0.73720000       0.86640000       0.21710000
    99  H          0.73720000       0.63360000       0.71710000
   100  H          0.26280000       0.13360000       0.78290000
   101  C          0.49363120       0.50844150       0.29738110
   102  C          0.50636880       0.00844150       0.20261890
   103  C          0.50636880       0.49155850       0.70261890
   104  C          0.49363120      -0.00844150       0.79738110
   105  C          0.53109140       0.61091170       0.34099130
   106  C          0.46890860       0.11091170       0.15900870
   107  C          0.46890860       0.38908830       0.65900870
   108  C          0.53109140       0.88908830       0.84099130
   109  H          0.51970000       0.68430000       0.31470000
   110  H          0.48030000       0.18430000       0.18530000
   111  H          0.48030000       0.31570000       0.68530000
   112  H          0.51970000       0.81570000       0.81470000
   113  C          0.58539150       0.60192000       0.42395140
   114  C          0.41460850       0.10192000       0.07604860
   115  C          0.41460850       0.39808000       0.57604860
   116  C          0.58539150       0.89808000       0.92395140
   117  H          0.61040000       0.67010000       0.45360000
   118  H          0.38960000       0.17010000       0.04640000
   119  H          0.38960000       0.32990000       0.54640000
   120  H          0.61040000       0.82990000       0.95360000
   121  C          0.60356140       0.49292000       0.46425120
   122  C          0.39643860      -0.00708000       0.03574880
   123  C          0.39643860       0.50708000       0.53574880
   124  C          0.60356140       0.00708000       0.96425120
   125  C          0.56808150       0.39261190       0.41871120
   126  C          0.43191850       0.89261190       0.08128880
   127  C          0.43191850       0.60738810       0.58128880
   128  C          0.56808150       0.10738810       0.91871120
   129  H          0.58150000       0.31890000       0.44430000
   130  H          0.41850000       0.81890000       0.05570000
   131  H          0.41850000       0.68110000       0.55570000
   132  H          0.58150000       0.18110000       0.94430000
   133  C          0.51284140       0.39918160       0.33565120
   134  C          0.48715860       0.89918160       0.16434880
   135  C          0.48715860       0.60081840       0.66434880
   136  C          0.51284140       0.10081840       0.83565120
   137  H          0.48890000       0.33070000       0.30580000
   138  H          0.51110000       0.83070000       0.19420000
   139  H          0.51110000       0.66930000       0.69420000
   140  H          0.48890000       0.16930000       0.80580000
   141  C          0.65963170       0.48453000       0.55599140
   142  C          0.34036830       0.98453000       0.94400860
   143  C          0.34036830       0.51547000       0.44400860
   144  C          0.65963170       0.01547000       0.05599140
   145  H          0.61610000       0.48850000       0.58890000
   146  H          0.38390000      -0.01150000       0.91110000
   147  H          0.38390000       0.51150000       0.41110000
   148  H          0.61610000       0.01150000       0.08890000
   149  H          0.70460000       0.54880000       0.57090000
   150  H          0.29540000       0.04880000       0.92910000
   151  H          0.29540000       0.45120000       0.42910000
   152  H          0.70460000       0.95120000       0.07090000
   153  H          0.69390000       0.41080000       0.56650000
   154  H          0.30610000       0.91080000       0.93350000
   155  H          0.30610000       0.58920000       0.43350000
   156  H          0.69390000       0.08920000       0.06650000
   157  C          0.08283130       0.66627180       0.37750120
   158  C          0.91716870       0.16627180       0.12249880
   159  C          0.91716870       0.33372820       0.62249880
   160  C          0.08283130       0.83372820       0.87750120
   161  C          0.06188170       0.54762000       0.37863150
   162  C          0.93811830       0.04762000       0.12136850
   163  C          0.93811830       0.45238000       0.62136850
   164  C          0.06188170       0.95238000       0.87863150
   165  H          0.02770000       0.50860000       0.32980000
   166  H          0.97230000       0.00860000       0.17020000
   167  H          0.97230000       0.49140000       0.67020000
   168  H          0.02770000      -0.00860000       0.82980000
   169  C          0.09312000       0.48772000       0.45452000
   170  C          0.90688000      -0.01228000       0.04548000
   171  C          0.90688000       0.51228000       0.54548000
   172  C          0.09312000       0.01228000       0.95452000
   173  H          0.07870000       0.40770000       0.45570000
   174  H          0.92130000       0.90770000       0.04430000
   175  H          0.92130000       0.59230000       0.54430000
   176  H          0.07870000       0.09230000       0.95570000
   177  C          0.14433190       0.54233000       0.52773160
   178  C          0.85566810       0.04233000       0.97226840
   179  C          0.85566810       0.45767000       0.47226840
   180  C          0.14433190       0.95767000       0.02773160
   181  C          0.16399190       0.66163000       0.52437150
   182  C          0.83600810       0.16163000       0.97562850
   183  C          0.83600810       0.33837000       0.47562850
   184  C          0.16399190       0.83837000       0.02437150
   185  H          0.19830000       0.70060000       0.57320000
   186  H          0.80170000       0.20060000       0.92680000
   187  H          0.80170000       0.29940000       0.42680000
   188  H          0.19830000       0.79940000       0.07320000
   189  C          0.13406170       0.72392000       0.45059140
   190  C          0.86593830       0.22392000       0.04940860
   191  C          0.86593830       0.27608000       0.54940860
   192  C          0.13406170       0.77608000       0.95059140
   193  H          0.14800000       0.80410000       0.44960000
   194  H          0.85200000       0.30410000       0.05040000
   195  H          0.85200000       0.19590000       0.55040000
   196  H          0.14800000       0.69590000       0.94960000
   197  C          0.17903000       0.47444000       0.60892000
   198  C          0.82097000       0.97444000       0.89108000
   199  C          0.82097000       0.52556000       0.39108000
   200  C          0.17903000       0.02556000       0.10892000
   201  H          0.24650000       0.48870000       0.63440000
   202  H          0.75350000      -0.01130000       0.86560000
   203  H          0.75350000       0.51130000       0.36560000
   204  H          0.24650000       0.01130000       0.13440000
   205  H          0.16840000       0.39140000       0.59790000
   206  H          0.83160000       0.89140000       0.90210000
   207  H          0.83160000       0.60860000       0.40210000
   208  H          0.16840000       0.10860000       0.09790000
   209  H          0.14420000       0.50000000       0.64610000
   210  H          0.85580000       0.00000000       0.85390000
   211  H          0.85580000       0.50000000       0.35390000
   212  H          0.14420000       0.00000000       0.14610000
   213  H          0.17981500       0.79921900       0.27451300
   214  H          0.82018500       0.29921900       0.22548700
   215  H          0.82018500       0.20078100       0.72548700
   216  H          0.17981500       0.70078100       0.77451300
   217  O          0.24083150       0.96494160       0.32568130
   218  O          0.75916850       0.46494160       0.17431870
   219  O          0.75916850       0.03505840       0.67431870
   220  O          0.24083150       0.53505840       0.82568130
   221  C          0.37942000       0.90023000       0.42943160
   222  C          0.62058000       0.40023000       0.07056840
   223  C          0.62058000       0.09977000       0.57056840
   224  C          0.37942000       0.59977000       0.92943160
   225  H          0.35480000       0.82280000       0.41120000
   226  H          0.64520000       0.32280000       0.08880000
   227  H          0.64520000       0.17720000       0.58880000
   228  H          0.35480000       0.67720000       0.91120000
   229  H          0.38670000       0.90880000       0.48810000
   230  H          0.61330000       0.40880000       0.01190000
   231  H          0.61330000       0.09120000       0.51190000
   232  H          0.38670000       0.59120000       0.98810000
   233  H          0.44070000       0.91030000       0.42010000
   234  H          0.55930000       0.41030000       0.07990000
   235  H          0.55930000       0.08970000       0.57990000
   236  H          0.44070000       0.58970000       0.92010000
   237  C          0.31172190      -0.00958000       0.38170150
   238  C          0.68827810       0.49042000       0.11829850
   239  C          0.68827810       0.00958000       0.61829850
   240  C          0.31172190       0.50958000       0.88170150
   241  C          0.33503000       0.11722000       0.40532000
   242  C          0.66497000       0.61722000       0.09468000
   243  C          0.66497000       0.88278000       0.59468000
   244  C          0.33503000       0.38278000       0.90532000
   245  H          0.39090000       0.14020000       0.39020000
   246  H          0.60910000       0.64020000       0.10980000
   247  H          0.60910000       0.85980000       0.60980000
   248  H          0.39090000       0.35980000       0.89020000
   249  H          0.34760000       0.12640000       0.46460000
   250  H          0.65240000       0.62640000       0.03540000
   251  H          0.65240000       0.87360000       0.53540000
   252  H          0.34760000       0.37360000       0.96460000
   253  H          0.28160000       0.16620000       0.37620000
   254  H          0.71840000       0.66620000       0.12380000
   255  H          0.71840000       0.83380000       0.62380000
   256  H          0.28160000       0.33380000       0.87620000
