data_ZUKHIA
_symmetry_space_group_name_H-M    'P1'
_symmetry_Int_Tables_number       1
loop_
_symmetry_equiv_pos_site_id
_symmetry_equiv_pos_as_xyz
1 x,y,z
_cell_length_a                   4.17738
_cell_length_b                   8.734417
_cell_length_c                   13.6053
_cell_angle_alpha                84.213
_cell_angle_beta                 87.653
_cell_angle_gamma                86.313
loop_
_atom_site_label
_atom_site_type_symbol
_atom_site_fract_x
_atom_site_fract_y
_atom_site_fract_z
     1  O          0.58098000       0.64023000       0.18142000
     2  O          0.41902000       0.35977000       0.81858000
     3  H          0.66100000       0.58230000       0.14210000
     4  H          0.33900000       0.41770000       0.85790000
     5  O          0.31258000       0.86823000       0.28532000
     6  O          0.68742000       0.13177000       0.71468000
     7  H          0.36140000       0.78120000       0.31080000
     8  H          0.63860000       0.21880000       0.68920000
     9  O          0.72139000       0.36663000       0.10893000
    10  O          0.27861000       0.63337000       0.89107000
    11  O          0.02328000       0.28763000       0.98418000
    12  O         -0.02328000       0.71237000       0.01582000
    13  C          0.65021100       0.78635000       0.15094000
    14  C          0.34978900       0.21365000       0.84906000
    15  C          0.51271100       0.90265000       0.20643000
    16  C          0.48728900       0.09735000       0.79357000
    17  C          0.56401100       0.05485000       0.17893000
    18  C          0.43598900       0.94515000       0.82107000
    19  H          0.46800000       0.13090000       0.21540000
    20  H          0.53200000       0.86910000       0.78460000
    21  C          0.75851100       0.09515000       0.09693000
    22  C          0.24148900       0.90485000       0.90307000
    23  C          0.89651100       0.98145000       0.04243000
    24  C          0.10348900       0.01855000       0.95757000
    25  C          0.82541200       0.25615000       0.06733000
    26  C          0.17458800       0.74385000       0.93267000
    27  C          0.84451100       0.83015000       0.07013000
    28  C          0.15548900       0.16985000       0.92987000
    29  N          0.58019000       0.38454000       0.57743000
    30  N          0.41981000       0.61546000       0.42257000
    31  C          0.14081200       0.17175000       0.41894000
    32  C          0.85918800       0.82825000       0.58106000
    33  H          0.08150000       0.07150000       0.41560000
    34  H          0.91850000       0.92850000       0.58440000
    35  C          0.30981100       0.20365000       0.49624000
    36  C          0.69018900       0.79635000       0.50376000
    37  H          0.36020000       0.12670000       0.54650000
    38  H          0.63980000       0.87330000       0.45350000
    39  C          0.40981100       0.35455000       0.50033000
    40  C          0.59018900       0.64545000       0.49967000
    41  C          0.67311000       0.52855000       0.57693000
    42  C          0.32689000       0.47145000       0.42307000
    43  C          0.85491100       0.56775000       0.65544000
    44  C          0.14508900       0.43225000       0.34456000
    45  H          0.91090000       0.49290000       0.70640000
    46  H          0.08910000       0.50710000       0.29360000
    47  C          0.05261200       0.28756000       0.34314000
    48  C          0.94738800       0.71244000       0.65686000
    49  H          0.92980000       0.26370000       0.29180000
    50  H          0.07020000       0.73630000       0.70820000
