data_ZURVIT
_symmetry_space_group_name_H-M    'P1'
_symmetry_Int_Tables_number       1
loop_
_symmetry_equiv_pos_site_id
_symmetry_equiv_pos_as_xyz
1 x,y,z
_cell_length_a                   8.4106
_cell_length_b                   24.36218
_cell_length_c                   11.1438
_cell_angle_alpha                90.0
_cell_angle_beta                 106.2867
_cell_angle_gamma                90.0
loop_
_atom_site_label
_atom_site_type_symbol
_atom_site_fract_x
_atom_site_fract_y
_atom_site_fract_z
     1  Cl         0.28467200       0.07319200       0.44173300
     2  Cl         0.21532800       0.57319200       0.05826700
     3  Cl         0.71532800       0.92680800       0.55826700
     4  Cl         0.78467200       0.42680800       0.94173300
     5  O          0.11105800       0.06297600       0.97219000
     6  O          0.38894200       0.56297600       0.52781000
     7  O          0.88894200       0.93702400       0.02781000
     8  O          0.61105800       0.43702400       0.47219000
     9  O          0.60439700       0.83978200       0.94628700
    10  O          0.89560300       0.33978200       0.55371300
    11  O          0.39560300       0.16021800       0.05371300
    12  O          0.10439700       0.66021800       0.44628700
    13  O          0.69673600       0.82211600       0.14374200
    14  O          0.80326400       0.32211600       0.35625800
    15  O          0.30326400       0.17788400       0.85625800
    16  O          0.19673600       0.67788400       0.64374200
    17  N          0.61154100       0.84915800       0.05565300
    18  N          0.88845900       0.34915800       0.44434700
    19  N          0.38845900       0.15084200       0.94434700
    20  N          0.11154100       0.65084200       0.55565300
    21  N          0.25000800       0.02679500       0.16497800
    22  N          0.24999200       0.52679500       0.33502200
    23  N          0.74999200       0.97320500       0.83502200
    24  N          0.75000800       0.47320500       0.66497800
    25  N          0.09750600       0.10470700       0.15418100
    26  N          0.40249400       0.60470700       0.34581900
    27  N          0.90249400       0.89529300       0.84581900
    28  N          0.59750600       0.39529300       0.65418100
    29  C          0.51509300       0.89469300       0.08278400
    30  C         -0.01509300       0.39469300       0.41721600
    31  C          0.48490700       0.10530700       0.91721600
    32  C          0.01509300       0.60530700       0.58278400
    33  C          0.53205700       0.90914500       0.20650900
    34  C          0.96794300       0.40914500       0.29349100
    35  C          0.46794300       0.09085500       0.79349100
    36  C          0.03205700       0.59085500       0.70650900
    37  C          0.44145200       0.95324400       0.23002700
    38  C          0.05854800       0.45324400       0.26997300
    39  C          0.55854800       0.04675600       0.76997300
    40  C          0.94145200       0.54675600       0.73002700
    41  C          0.33234300       0.98264300       0.13136400
    42  C          0.16765700       0.48264300       0.36863600
    43  C          0.66765700       0.01735700       0.86863600
    44  C          0.83234300       0.51735700       0.63136400
    45  C          0.31474900       0.96645500       0.00725400
    46  C          0.18525100       0.46645500       0.49274600
    47  C          0.68525100       0.03354500      -0.00725400
    48  C          0.81474900       0.53354500       0.50725400
    49  C          0.40746700       0.92274000       0.98401700
    50  C          0.09253300       0.42274000       0.51598300
    51  C          0.59253300       0.07726000       0.01598300
    52  C          0.90746700       0.57726000       0.48401700
    53  C          0.14870500       0.06482500       0.08626200
    54  C          0.35129500       0.56482500       0.41373800
    55  C          0.85129500       0.93517500       0.91373800
    56  C          0.64870500       0.43517500       0.58626200
    57  C          0.01004200       0.15280100       0.10678500
    58  C          0.48995800       0.65280100       0.39321500
    59  C         -0.01004200       0.84719900       0.89321500
    60  C          0.51004200       0.34719900       0.60678500
    61  C          0.02142500       0.19625500       0.19106800
    62  C          0.47857500       0.69625500       0.30893200
    63  C         -0.02142500       0.80374500       0.80893200
    64  C          0.52142500       0.30374500       0.69106800
    65  C          0.93493500       0.24500000       0.15318300
    66  C          0.56506500       0.74500000       0.34681700
    67  C          0.06506500       0.75500000       0.84681700
    68  C          0.43493500       0.25500000       0.65318300
    69  C          0.83625700       0.25114200       0.02993800
    70  C          0.66374300       0.75114200       0.47006200
    71  C          0.16374300       0.74885800       0.97006200
    72  C          0.33625700       0.24885800       0.52993800
    73  C          0.82459100       0.20766300       0.94640500
    74  C          0.67540900       0.70766300       0.55359500
    75  C          0.17540900       0.79233700       0.05359500
    76  C          0.32459100       0.29233700       0.44640500
    77  C          0.91003600       0.15857300       0.98330200
    78  C          0.58996400       0.65857300       0.51669800
    79  C          0.08996400       0.84142700       0.01669800
    80  C          0.41003600       0.34142700       0.48330200
    81  H          0.61632600       0.88693900       0.28232900
    82  H          0.88367400       0.38693900       0.21767100
    83  H          0.38367400       0.11306100       0.71767100
    84  H          0.11632600       0.61306100       0.78232900
    85  H          0.45620300       0.96619500       0.32550800
    86  H          0.04379700       0.46619500       0.17449200
    87  H          0.54379700       0.03380500       0.67449200
    88  H          0.95620300       0.53380500       0.82550800
    89  H          0.22910000       0.98914800       0.93313900
    90  H          0.27090000       0.48914800       0.56686100
    91  H          0.77090000       0.01085200       0.06686100
    92  H          0.72910000       0.51085200       0.43313900
    93  H          0.40103100       0.90920400       0.89019600
    94  H          0.09896900       0.40920400       0.60980400
    95  H          0.59896900       0.09079600       0.10980400
    96  H          0.90103100       0.59079600       0.39019600
    97  H          0.10041900       0.19009400       0.28518000
    98  H          0.39958100       0.69009400       0.21482000
    99  H          0.89958100       0.80990600       0.71482000
   100  H          0.60041900       0.30990600       0.78518000
   101  H          0.94872900       0.27758500       0.22145500
   102  H          0.55127100       0.77758500       0.27854500
   103  H          0.05127100       0.72241500       0.77854500
   104  H          0.44872900       0.22241500       0.72145500
   105  H          0.76840400       0.28867200      -0.00166800
   106  H          0.73159600       0.78867200       0.50166800
   107  H          0.23159600       0.71132800       0.00166800
   108  H          0.26840400       0.21132800       0.49833200
   109  H          0.74873300       0.21251800       0.85089300
   110  H          0.75126700       0.71251800       0.64910700
   111  H          0.25126700       0.78748200       0.14910700
   112  H          0.24873300       0.28748200       0.35089300
   113  H          0.89567000       0.12455600       0.91856400
   114  H          0.60433000       0.62455600       0.58143600
   115  H          0.10433000       0.87544400       0.08143600
   116  H          0.39567000       0.37544400       0.41856400
   117  H          0.27457600       0.03435300       0.25741000
   118  H          0.22542400       0.53435300       0.24259000
   119  H          0.72542400       0.96564700       0.74259000
   120  H          0.77457600       0.46564700       0.75741000
   121  H          0.15283900       0.10293400       0.24699400
   122  H          0.34716100       0.60293400       0.25300600
   123  H          0.84716100       0.89706600       0.75300600
   124  H          0.65283900       0.39706600       0.74699400
   125  N          0.82002500       0.12831200       0.50223900
   126  N          0.67997500       0.62831200      -0.00223900
   127  N          0.17997500       0.87168800       0.49776100
   128  N          0.32002500       0.37168800       0.00223900
   129  C          0.84078500       0.09554400       0.39180100
   130  C          0.65921500       0.59554400       0.10819900
   131  C          0.15921500       0.90445600       0.60819900
   132  C          0.34078500       0.40445600       0.89180100
   133  C          0.71466300       0.04991900       0.34803100
   134  C          0.78533700       0.54991900       0.15196900
   135  C          0.28533700       0.95008100       0.65196900
   136  C          0.21466300       0.45008100       0.84803100
   137  C          0.64838100       0.15386500       0.47248600
   138  C          0.85161900       0.65386500       0.02751400
   139  C          0.35161900       0.84613500       0.52751400
   140  C          0.14838100       0.34613500       0.97248600
   141  C          0.60226800       0.19043100       0.35778500
   142  C          0.89773200       0.69043100       0.14221500
   143  C          0.39773200       0.80956900       0.64221500
   144  C          0.10226800       0.30956900       0.85778500
   145  C          0.95430400       0.17198100       0.52966700
   146  C          0.54569600       0.67198100       0.97033300
   147  C          0.04569600       0.82801900       0.47033300
   148  C          0.45430400       0.32801900       0.02966700
   149  C          0.95954200       0.20886800       0.63990100
   150  C          0.54045800       0.70886800       0.86009900
   151  C          0.04045800       0.79113200       0.36009900
   152  C          0.45954200       0.29113200       0.13990100
   153  C          0.83659700       0.09103900       0.61433400
   154  C          0.66340300       0.59103900       0.88566600
   155  C          0.16340300       0.90896100       0.38566600
   156  C          0.33659700       0.40896100       0.11433400
   157  C          0.00286600       0.06333800       0.66524600
   158  C          0.49713400       0.56333800       0.83475400
   159  C         -0.00286600       0.93666200       0.33475400
   160  C          0.50286600       0.43666200       0.16524600
   161  H          0.96670600       0.07924000       0.42184000
   162  H          0.53329400       0.57924000       0.07816000
   163  H          0.03329400       0.92076000       0.57816000
   164  H          0.46670600       0.42076000       0.92184000
   165  H          0.83363200       0.12671300       0.32005000
   166  H          0.66636800       0.62671300       0.17995000
   167  H          0.16636800       0.87328700       0.67995000
   168  H          0.33363200       0.37328700       0.82005000
   169  H          0.74536200       0.03020800       0.27279500
   170  H          0.75463800       0.53020800       0.22720500
   171  H          0.25463800       0.96979200       0.72720500
   172  H          0.24536200       0.46979200       0.77279500
   173  H          0.59178900       0.06501000       0.31759100
   174  H          0.90821100       0.56501000       0.18240900
   175  H          0.40821100       0.93499000       0.68240900
   176  H          0.09178900       0.43499000       0.81759100
   177  H          0.72416600       0.01941800       0.41740600
   178  H          0.77583400       0.51941800       0.08259400
   179  H          0.27583400       0.98058200       0.58259400
   180  H          0.22416600       0.48058200       0.91740600
   181  H          0.56286400       0.11939000       0.46358300
   182  H          0.93713600       0.61939000       0.03641700
   183  H          0.43713600       0.88061000       0.53641700
   184  H          0.06286400       0.38061000       0.96358300
   185  H          0.65082800       0.17440900       0.56008600
   186  H          0.84917200       0.67440900       0.93991400
   187  H          0.34917200       0.82559100       0.43991400
   188  H          0.15082800       0.32559100       0.06008600
   189  H          0.48145700       0.20515100       0.35055400
   190  H          0.01854300       0.70515100       0.14944600
   191  H          0.51854300       0.79484900       0.64944600
   192  H         -0.01854300       0.29484900       0.85055400
   193  H          0.60506900       0.16965000       0.27492900
   194  H          0.89493100       0.66965000       0.22507100
   195  H          0.39493100       0.83035000       0.72507100
   196  H          0.10506900       0.33035000       0.77492900
   197  H          0.67935300       0.22550100       0.36821300
   198  H          0.82064700       0.72550100       0.13178700
   199  H          0.32064700       0.77449900       0.63178700
   200  H          0.17935300       0.27449900       0.86821300
   201  H          0.06812700       0.14843400       0.54134900
   202  H          0.43187300       0.64843400       0.95865100
   203  H          0.93187300       0.85156600       0.45865100
   204  H          0.56812700       0.35156600       0.04134900
   205  H          0.92705100       0.19639000       0.44411100
   206  H          0.57294900       0.69639000       0.05588900
   207  H          0.07294900       0.80361000       0.55588900
   208  H          0.42705100       0.30361000       0.94411100
   209  H          0.05743500       0.23754900       0.65221700
   210  H          0.44256500       0.73754900       0.84778300
   211  H          0.94256500       0.76245100       0.34778300
   212  H          0.55743500       0.26245100       0.15221700
   213  H         -0.01755300       0.18695300       0.72513000
   214  H          0.51755300       0.68695300       0.77487000
   215  H          0.01755300       0.81304700       0.27487000
   216  H          0.48244700       0.31304700       0.22513000
   217  H          0.84678500       0.22996200       0.63128600
   218  H          0.65321500       0.72996200       0.86871400
   219  H          0.15321500       0.77003800       0.36871400
   220  H          0.34678500       0.27003800       0.13128600
   221  H          0.80466500       0.11725700       0.68362200
   222  H          0.69533500       0.61725700       0.81637800
   223  H          0.19533500       0.88274300       0.31637800
   224  H          0.30466500       0.38274300       0.18362200
   225  H          0.73571500       0.06152400       0.58305300
   226  H          0.76428500       0.56152400       0.91694700
   227  H          0.26428500       0.93847600       0.41694700
   228  H          0.23571500       0.43847600       0.08305300
   229  H         -0.00329300       0.03655100       0.73865800
   230  H          0.50329300       0.53655100       0.76134200
   231  H          0.00329300       0.96344900       0.26134200
   232  H          0.49670700       0.46344900       0.23865800
   233  H          0.09800000       0.09234700       0.70149700
   234  H          0.40200000       0.59234700       0.79850300
   235  H          0.90200000       0.90765300       0.29850300
   236  H          0.59800000       0.40765300       0.20149700
   237  H          0.03976300       0.04080900       0.59629900
   238  H          0.46023700       0.54080900       0.90370100
   239  H          0.96023700       0.95919100       0.40370100
   240  H          0.53976300       0.45919100       0.09629900
