data_ZUVKEI
_symmetry_space_group_name_H-M    'P1'
_symmetry_Int_Tables_number       1
loop_
_symmetry_equiv_pos_site_id
_symmetry_equiv_pos_as_xyz
1 x,y,z
_cell_length_a                   10.77428
_cell_length_b                   11.15299
_cell_length_c                   20.303016
_cell_angle_alpha                98.82401
_cell_angle_beta                 104.70001
_cell_angle_gamma                101.07101
loop_
_atom_site_label
_atom_site_type_symbol
_atom_site_fract_x
_atom_site_fract_y
_atom_site_fract_z
     1  Br         0.20441800       0.59997600       0.01223300
     2  Br         0.79558200       0.40002400       0.98776700
     3  Br         0.34963700       0.49755600       0.61967300
     4  Br         0.65036300       0.50244400       0.38032700
     5  C          0.25865000       0.95305000       0.30503000
     6  C          0.74135000       0.04695000       0.69497000
     7  C          0.20285000       0.82515000       0.29283000
     8  C          0.79715000       0.17485000       0.70717000
     9  C          0.12156000       0.78145000       0.33633000
    10  C          0.87844000       0.21855000       0.66367000
    11  C          0.10175000       0.86475000       0.38553000
    12  C          0.89825000       0.13525000       0.61447000
    13  C          0.16175000      -0.00145000       0.39753000
    14  C          0.83825000       0.00145000       0.60247000
    15  C          0.24065000       0.04105000       0.36053000
    16  C          0.75935000       0.95895000       0.63947000
    17  C          0.25504000       0.16934000       0.34222000
    18  C          0.74496000       0.83066000       0.65778000
    19  C          0.24124000       0.13554000       0.26373000
    20  C          0.75876000       0.86446000       0.73627000
    21  C          0.25755000       0.01165000       0.24683000
    22  C          0.74245000      -0.01165000       0.75317000
    23  C          0.20535000       0.94335000       0.17973000
    24  C          0.79465000       0.05665000       0.82027000
    25  C          0.14776000       0.80995000       0.16803000
    26  C          0.85224000       0.19005000       0.83197000
    27  C          0.14596000       0.75405000       0.22434000
    28  C          0.85404000       0.24595000       0.77566000
    29  C          0.02846000       0.66405000       0.22164000
    30  C          0.97154000       0.33595000       0.77836000
    31  C          0.01466000       0.68245000       0.29143000
    32  C         -0.01466000       0.31755000       0.70857000
    33  C          0.88874000       0.67215000       0.29963000
    34  C          0.11126000       0.32785000       0.70037000
    35  C          0.86714000       0.75955000       0.35253000
    36  C          0.13286000       0.24045000       0.64747000
    37  C          0.97294000       0.85665000       0.39593000
    38  C          0.02706000       0.14335000       0.60407000
    39  C          0.95314000       0.98035000       0.41333000
    40  C          0.04686000       0.01965000       0.58667000
    41  C          0.07075000       0.06795000       0.41463000
    42  C          0.92925000       0.93205000       0.58537000
    43  C          0.06285000       0.18384000       0.39422000
    44  C          0.93715000       0.81616000       0.60578000
    45  C          0.14545000       0.22994000       0.35222000
    46  C          0.85455000       0.77006000       0.64778000
    47  C          0.10065000       0.30224000       0.30722000
    48  C          0.89935000       0.69776000       0.69278000
    49  C          0.13815000       0.31104000       0.23902000
    50  C          0.86185000       0.68896000       0.76098000
    51  C          0.17815000       0.19094000       0.21482000
    52  C          0.82185000       0.80906000       0.78518000
    53  C          0.11805000       0.11844000       0.14352000
    54  C          0.88195000       0.88156000       0.85648000
    55  C          0.12935000      -0.00605000       0.12763000
    56  C          0.87065000       0.00605000       0.87237000
    57  C          0.02236000       0.89374000       0.08293000
    58  C          0.97764000       0.10626000       0.91707000
    59  C          0.03446000       0.78295000       0.10883000
    60  C          0.96554000       0.21705000       0.89117000
    61  C          0.91984000       0.69655000       0.10703000
    62  C          0.08016000       0.30345000       0.89297000
    63  C          0.91844000       0.63785000       0.16473000
    64  C          0.08156000       0.36215000       0.83527000
    65  C          0.78844000       0.62695000       0.17423000
    66  C          0.21156000       0.37305000       0.82577000
    67  C          0.77414000       0.64356000       0.23923000
    68  C          0.22586000       0.35644000       0.76077000
    69  C          0.68285000       0.71195000       0.25623000
    70  C          0.31715000       0.28805000       0.74377000
    71  C          0.74004000       0.78565000       0.32593000
    72  C          0.25996000       0.21435000       0.67407000
    73  C          0.71354000       0.90185000       0.34593000
    74  C          0.28646000       0.09815000       0.65407000
    75  C          0.82584000       0.00585000       0.39213000
    76  C          0.17416000      -0.00585000       0.60787000
    77  C          0.82163000       0.12745000       0.38673000
    78  C          0.17837000       0.87255000       0.61327000
    79  C          0.94114000       0.21615000       0.38773000
    80  C          0.05886000       0.78385000       0.61227000
    81  C          0.89904000       0.29685000       0.34343000
    82  C          0.10096000       0.70315000       0.65657000
    83  C          0.97715000       0.33684000       0.30213000
    84  C          0.02285000       0.66316000       0.69787000
    85  C          0.91884000       0.34725000       0.23223000
    86  C          0.08116000       0.65275000       0.76777000
    87  C          0.00536000       0.31484000       0.19023000
    88  C         -0.00536000       0.68516000       0.80977000
    89  C          0.95094000       0.24485000       0.12513000
    90  C          0.04906000       0.75515000       0.87487000
    91  C          0.00406000       0.14455000       0.10093000
    92  C         -0.00406000       0.85545000       0.89907000
    93  C          0.89784000       0.04246000       0.05593000
    94  C          0.10216000       0.95754000       0.94407000
    95  C          0.90073000       0.91664000       0.05253000
    96  C          0.09927000       0.08336000       0.94747000
    97  C          0.77984000       0.82585000       0.05063000
    98  C          0.22016000       0.17415000       0.94937000
    99  C          0.79244000       0.72085000       0.08023000
   100  C          0.20756000       0.27915000       0.91977000
   101  C          0.71094000       0.67745000       0.12113000
   102  C          0.28906000       0.32255000       0.87887000
   103  C          0.61375000       0.73685000       0.13403000
   104  C          0.38625000       0.26315000       0.86597000
   105  C          0.59755000       0.75575000       0.20383000
   106  C          0.40245000       0.24425000       0.79617000
   107  C          0.55295000       0.85995000       0.22954000
   108  C          0.44705000       0.14005000       0.77046000
   109  C          0.60874000       0.93285000       0.29824000
   110  C          0.39126000       0.06715000       0.70176000
   111  C          0.60544000       0.06036000       0.29644000
   112  C          0.39456000       0.93964000       0.70356000
   113  C          0.71224000       0.15746000       0.34084000
   114  C          0.28776000       0.84254000       0.65916000
   115  C          0.75824000       0.26235000       0.31444000
   116  C          0.24176000       0.73765000       0.68556000
   117  C          0.70284000       0.27125000       0.24524000
   118  C          0.29716000       0.72875000       0.75476000
   119  C          0.78444000       0.31495000       0.20424000
   120  C          0.21556000       0.68505000       0.79576000
   121  C          0.72693000       0.24246000       0.13344000
   122  C          0.27307000       0.75754000       0.86656000
   123  C          0.80814000       0.20776000       0.09484000
   124  C          0.19186000       0.79224000       0.90516000
   125  C          0.77393000       0.08556000       0.05343000
   126  C          0.22607000       0.91444000       0.94657000
   127  C          0.66223000       0.00046000       0.05053000
   128  C          0.33777000      -0.00046000       0.94947000
   129  C          0.66543000       0.86884000       0.05193000
   130  C          0.33457000       0.13116000       0.94807000
   131  C          0.58304000       0.82714000       0.09263000
   132  C          0.41696000       0.17286000       0.90737000
   133  C          0.52925000       0.92624000       0.11814000
   134  C          0.47075000       0.07376000       0.88186000
   135  C          0.51445000       0.94444000       0.18284000
   136  C          0.48555000       0.05556000       0.81716000
   137  C          0.54774000       0.06986000       0.22684000
   138  C          0.45226000       0.93014000       0.77316000
   139  C          0.59194000       0.17096000       0.20045000
   140  C          0.40806000       0.82904000       0.79955000
   141  C          0.60704000       0.15296000       0.13104000
   142  C          0.39296000       0.84704000       0.86896000
   143  C          0.57794000       0.03536000       0.09064000
   144  C          0.42206000       0.96464000       0.90936000
   145  C          0.39615000       0.25565000       0.38213000
   146  C          0.60385000       0.74435000       0.61787000
   147  H          0.46160000       0.21860000       0.36720000
   148  H          0.53840000       0.78140000       0.63280000
   149  H          0.40190000       0.33600000       0.36890000
   150  H          0.59810000       0.66400000       0.63110000
   151  C          0.42995000       0.27655000       0.46023000
   152  C          0.57005000       0.72345000       0.53977000
   153  C          0.38375000       0.36275000       0.49783000
   154  C          0.61625000       0.63725000       0.50217000
   155  H          0.32960000       0.40820000       0.47470000
   156  H          0.67040000       0.59180000       0.52530000
   157  C          0.41755000       0.38175000       0.56993000
   158  C          0.58245000       0.61825000       0.43007000
   159  C          0.49946000       0.31556000       0.60543000
   160  C          0.50054000       0.68444000       0.39457000
   161  H          0.52340000       0.32950000       0.65380000
   162  H          0.47660000       0.67050000       0.34620000
   163  C          0.54396000       0.22987000       0.56814000
   164  C          0.45604000       0.77013000       0.43186000
   165  H          0.59890000       0.18560000       0.59180000
   166  H          0.40110000       0.81440000       0.40820000
   167  C          0.50985000       0.20636000       0.49623000
   168  C          0.49015000       0.79364000       0.50377000
   169  H          0.53890000       0.14530000       0.47180000
   170  H          0.46110000       0.85470000       0.52820000
   171  C          0.24765000       0.43154000       0.24863000
   172  C          0.75235000       0.56846000       0.75137000
   173  H          0.21380000       0.50380000       0.26070000
   174  H          0.78620000       0.49620000       0.73930000
   175  H          0.32270000       0.43320000       0.28740000
   176  H          0.67730000       0.56680000       0.71260000
   177  C          0.29495000       0.44264000       0.18533000
   178  C          0.70505000       0.55736000       0.81467000
   179  C          0.23315000       0.50034000       0.13423000
   180  C          0.76685000       0.49966000       0.86577000
   181  H          0.15970000       0.52990000       0.13790000
   182  H          0.84030000       0.47010000       0.86210000
   183  C          0.28115000       0.51304000       0.07863000
   184  C          0.71885000       0.48696000       0.92137000
   185  C          0.38815000       0.46764000       0.07053000
   186  C          0.61185000       0.53236000       0.92947000
   187  H          0.41870000       0.47570000       0.03220000
   188  H          0.58130000       0.52430000       0.96780000
   189  C          0.44825000       0.41035000       0.12043000
   190  C          0.55175000       0.58965000       0.87957000
   191  H          0.52030000       0.37900000       0.11580000
   192  H          0.47970000       0.62100000       0.88420000
   193  C          0.40275000       0.39845000       0.17743000
   194  C          0.59725000       0.60155000       0.82257000
   195  H          0.44530000       0.36000000       0.21110000
   196  H          0.55470000       0.64000000       0.78890000
   197  S          0.09113000       0.58052000       0.46667120
   198  S          0.90887000       0.41948000       0.53332880
   199  C          0.00000000       0.50000000       0.50000000
