data_ZUYZIE
_symmetry_space_group_name_H-M    'P1'
_symmetry_Int_Tables_number       1
loop_
_symmetry_equiv_pos_site_id
_symmetry_equiv_pos_as_xyz
1 x,y,z
_cell_length_a                   9.729419
_cell_length_b                   11.4272
_cell_length_c                   11.5662
_cell_angle_alpha                90.023
_cell_angle_beta                 110.883
_cell_angle_gamma                93.063
loop_
_atom_site_label
_atom_site_type_symbol
_atom_site_fract_x
_atom_site_fract_y
_atom_site_fract_z
     1  I          0.74709200       0.47848200       0.61104200
     2  I          0.25290800       0.52151800       0.38895800
     3  O          0.47382000       0.31442000       0.65182000
     4  O          0.52618000       0.68558000       0.34818000
     5  O          0.68883000       0.31482000       0.36042000
     6  O          0.31117000       0.68518000       0.63958000
     7  N          0.60383000       0.33572000       0.52052000
     8  N          0.39617000       0.66428000       0.47948000
     9  C          0.60553000       0.28333000       0.41393000
    10  C          0.39447000       0.71667000       0.58607000
    11  C          0.49204000       0.18213000       0.37763000
    12  C          0.50796000       0.81787000       0.62237000
    13  H          0.53990000       0.10650000       0.38840000
    14  H          0.46010000       0.89350000       0.61160000
    15  H          0.42590000       0.18780000       0.29030000
    16  H          0.57410000       0.81220000       0.70970000
    17  C          0.40673000       0.19283000       0.46463000
    18  C          0.59327000       0.80717000       0.53537000
    19  H          0.30560000       0.21680000       0.41920000
    20  H          0.69440000       0.78320000       0.58080000
    21  H          0.40080000       0.11730000       0.50520000
    22  H          0.59920000       0.88270000       0.49480000
    23  C          0.49403000       0.28563000       0.55853000
    24  C          0.50597000       0.71437000       0.44147000
    25  O          0.90323000       0.64449190       0.71092000
    26  O          0.09677000       0.35550810       0.28908000
    27  N          0.00383000       0.62392000       0.82162000
    28  N         -0.00383000       0.37608000       0.17838000
    29  C          0.12274000       0.56453000       0.82823000
    30  C          0.87726000       0.43547000       0.17177000
    31  H          0.13210000       0.53600000       0.75440000
    32  H          0.86790000       0.46400000       0.24560000
    33  C          0.22944000       0.54513000       0.93993000
    34  C          0.77056000       0.45487000       0.06007000
    35  H          0.31240000       0.50270000       0.94400000
    36  H          0.68760000       0.49730000       0.05600000
    37  C          0.21544000       0.58763000       0.04683000
    38  C          0.78456000       0.41237000       0.95317000
    39  H          0.28960000       0.57660000       0.12520000
    40  H          0.71040000       0.42340000       0.87480000
    41  C          0.09254000       0.64613000       0.03803000
    42  C          0.90746000       0.35387000       0.96197000
    43  H          0.08150000       0.67430000       0.11130000
    44  H          0.91850000       0.32570000       0.88870000
    45  C         -0.01516000       0.66463000       0.92523000
    46  C          0.01516000       0.33537000       0.07477000
    47  C          0.84724000       0.72663000       0.90714000
    48  C          0.15276000       0.27337000       0.09286000
    49  H          0.84620000       0.79690000       0.85850000
    50  H          0.15380000       0.20310000       0.14150000
    51  H          0.84430000       0.74910000      -0.01200000
    52  H          0.15570000       0.25090000       0.01200000
    53  H          0.76110000       0.67430000       0.86320000
    54  H          0.23890000       0.32570000       0.13680000
    55  I          0.79401200       0.07659200       0.72369200
    56  I          0.20598800       0.92340800       0.27630800
    57  O          0.79532000       0.03442000       0.43522000
    58  O          0.20468000       0.96558000       0.56478000
    59  O          0.07432000       0.26702000       0.76532000
    60  O          0.92568000       0.73298000       0.23468000
    61  N          0.91113000       0.14502000       0.61422000
    62  N          0.08887000       0.85498000       0.38578000
    63  C          0.02733000       0.22853000       0.66013000
    64  C          0.97267000       0.77147000       0.33987000
    65  C          0.08214000       0.26073000       0.55683000
    66  C          0.91786000       0.73927000       0.44317000
    67  H          0.18840000       0.24740000       0.58130000
    68  H          0.81160000       0.75260000       0.41870000
    69  H          0.06700000       0.34410000       0.53550000
    70  H          0.93300000       0.65590000       0.46450000
    71  C         -0.00776000       0.18153000       0.44813000
    72  C          0.00776000       0.81847000       0.55187000
    73  H          0.05660000       0.12980000       0.42420000
    74  H          0.94340000       0.87020000       0.57580000
    75  H          0.93800000       0.22840000       0.37580000
    76  H          0.06200000       0.77160000       0.62420000
    77  C          0.88593000       0.11003000       0.49303000
    78  C          0.11407000       0.88997000       0.50697000
    79  O          0.66723000      -0.00604190       0.85172000
    80  O          0.33277000       0.00604190       0.14828000
    81  N          0.61783000       0.07182000       0.91232000
    82  N          0.38217000       0.92818000       0.08768000
    83  C          0.49114000       0.12473000       0.84893000
    84  C          0.50886000       0.87527000       0.15107000
    85  H          0.44080000       0.10660000       0.76350000
    86  H          0.55920000       0.89340000       0.23650000
    87  C          0.43604000       0.20353000       0.90743000
    88  C          0.56396000       0.79647000       0.09257000
    89  H          0.34930000       0.24200000       0.86250000
    90  H          0.65070000       0.75800000       0.13750000
    91  C          0.50744000       0.22663000       0.03283000
    92  C          0.49256000       0.77337000       0.96717000
    93  H          0.46970000       0.28010000       0.07530000
    94  H          0.53030000       0.71990000       0.92470000
    95  C          0.63434000       0.17083000       0.09473000
    96  C          0.36566000       0.82917000       0.90527000
    97  H          0.68320000       0.18580000       0.18090000
    98  H          0.31680000       0.81420000       0.81910000
    99  C          0.69203000       0.09363000       0.03463000
   100  C          0.30797000       0.90637000       0.96537000
   101  C          0.83064000       0.03383000       0.09333000
   102  C          0.16936000       0.96617000       0.90667000
   103  H          0.81020000       0.94880000       0.08320000
   104  H          0.18980000       0.05120000       0.91680000
   105  H          0.87220000       0.05480000       0.18160000
   106  H          0.12780000       0.94520000       0.81840000
   107  H          0.90120000       0.05830000       0.05390000
   108  H          0.09880000       0.94170000       0.94610000
   109  O          0.45664000       0.50453000       0.80103000
   110  O          0.54336000       0.49547000       0.19897000
   111  H          0.40800000       0.55750000       0.75540000
   112  H          0.59200000       0.44250000       0.24460000
   113  H          0.46300000       0.44780000       0.75590000
   114  H          0.53700000       0.55220000       0.24410000
