data_ZUYZEA
_symmetry_space_group_name_H-M    'P1'
_symmetry_Int_Tables_number       1
loop_
_symmetry_equiv_pos_site_id
_symmetry_equiv_pos_as_xyz
1 x,y,z
_cell_length_a                   8.154016
_cell_length_b                   11.6332
_cell_length_c                   12.4673
_cell_angle_alpha                67.553
_cell_angle_beta                 76.113
_cell_angle_gamma                76.473
loop_
_atom_site_label
_atom_site_type_symbol
_atom_site_fract_x
_atom_site_fract_y
_atom_site_fract_z
     1  I          0.56278200       0.19005200       0.74137200
     2  I          0.43721800       0.80994800       0.25862800
     3  O          0.36432000       0.13809160       0.01572170
     4  O          0.63568000       0.86190840       0.98427830
     5  O          0.44912000       0.49641160       0.70078180
     6  O          0.55088000       0.50358840       0.29921820
     7  N          0.42212000       0.30052180       0.84123190
     8  N          0.57788000       0.69947820       0.15876810
     9  C          0.39953000       0.43132000       0.80012000
    10  C          0.60047000       0.56868000       0.19988000
    11  C          0.30453000       0.47612000       0.90043000
    12  C          0.69547000       0.52388000       0.09957000
    13  H          0.19260000       0.52730000       0.88260000
    14  H          0.80740000       0.47270000       0.11740000
    15  H          0.37190000       0.52760000       0.91510000
    16  H          0.62810000       0.47240000       0.08490000
    17  C          0.28003000       0.35652000       0.00703000
    18  C          0.71997000       0.64348000      -0.00703000
    19  H          0.33940000       0.35170000       0.06960000
    20  H          0.66060000       0.64830000       0.93040000
    21  H          0.15700000       0.35410000       0.03950000
    22  H          0.84300000       0.64590000       0.96050000
    23  C          0.35773000       0.25012000       0.96022000
    24  C          0.64227000       0.74988000       0.03978000
    25  O          0.74272000       0.06280160       0.62475180
    26  O          0.25728000       0.93719840       0.37524820
    27  N          0.68832000       0.96828810       0.61422000
    28  N          0.31168000       0.03171190       0.38578000
    29  C          0.60363000       0.88698000       0.70863000
    30  C          0.39637000       0.11302000       0.29137000
    31  H          0.57940000       0.89760000       0.78300000
    32  H          0.42060000       0.10240000       0.21700000
    33  C          0.55223000       0.78818000       0.69613000
    34  C          0.44777000       0.21182000       0.30387000
    35  H          0.49040000       0.73160000       0.76170000
    36  H          0.50960000       0.26840000       0.23830000
    37  C          0.59063000       0.77198000       0.58863000
    38  C          0.40937000       0.22802000       0.41137000
    39  H          0.55720000       0.70350000       0.57970000
    40  H          0.44280000       0.29650000       0.42030000
    41  C          0.67803000       0.85618000       0.49393000
    42  C          0.32197000       0.14382000       0.50607000
    43  H          0.70500000       0.84650000       0.41910000
    44  H          0.29500000       0.15350000       0.58090000
    45  C          0.72593000       0.95418000       0.50833000
    46  C          0.27407000       0.04582000       0.49167000
    47  H          0.78590000       0.01250000       0.44310000
    48  H          0.21410000       0.98750000       0.55690000
    49  I          0.86786200       0.39793200       0.84356200
    50  I          0.13213800       0.60206800       0.15643800
    51  O          0.97662000       0.68779160       0.73054180
    52  O          0.02338000       0.31220840       0.26945820
    53  O          0.12322000       0.34356180       0.61642000
    54  O          0.87678000       0.65643820       0.38358000
    55  N          0.02303000       0.50173190       0.69442000
    56  N          0.97697000       0.49826810       0.30558000
    57  C          0.12023000       0.45092000       0.61043000
    58  C          0.87977000       0.54908000       0.38957000
    59  C          0.21733000       0.54892000       0.51593000
    60  C          0.78267000       0.45108000       0.48407000
    61  H          0.19440000       0.56200000       0.43730000
    62  H          0.80560000       0.43800000       0.56270000
    63  H          0.34190000       0.52370000       0.51620000
    64  H          0.65810000       0.47630000       0.48380000
    65  C          0.15073000       0.66812000       0.54743000
    66  C          0.84927000       0.33188000       0.45257000
    67  H          0.24670000       0.70500000       0.55020000
    68  H          0.75330000       0.29500000       0.44980000
    69  H          0.08240000       0.73170000       0.48880000
    70  H          0.91760000       0.26830000       0.51120000
    71  C          0.04103000       0.62642000       0.66682000
    72  C          0.95897000       0.37358000       0.33318000
    73  O          0.68772000       0.27247150       0.01654170
    74  O          0.31228000       0.72752850       0.98345830
    75  N          0.77912000       0.16406180       0.07492000
    76  N          0.22088000       0.83593820       0.92508000
    77  C          0.75973000       0.05482000       0.06822000
    78  C          0.24027000       0.94518000       0.93178000
    79  H          0.68440000       0.05480000       0.02080000
    80  H          0.31560000       0.94520000       0.97920000
    81  C          0.85073000       0.94338000       0.13123000
    82  C          0.14927000       0.05662000       0.86877000
    83  H          0.83730000       0.86620000       0.12710000
    84  H          0.16270000       0.13380000       0.87290000
    85  C          0.96113000       0.94237000       0.20003000
    86  C          0.03887000       0.05763000       0.79997000
    87  H          0.02320000       0.86540000       0.24370000
    88  H          0.97680000       0.13460000       0.75630000
    89  C          0.97923000       0.05573000       0.20403000
    90  C          0.02077000       0.94427000       0.79597000
    91  H          0.05560000       0.05760000       0.24980000
    92  H          0.94440000       0.94240000       0.75020000
    93  C          0.88643000       0.16582000       0.14133000
    94  C          0.11357000       0.83418000       0.85867000
    95  H          0.89780000       0.24370000       0.14490000
    96  H          0.10220000       0.75630000       0.85510000
