data_ZUYZOK
_symmetry_space_group_name_H-M    'P1'
_symmetry_Int_Tables_number       1
loop_
_symmetry_equiv_pos_site_id
_symmetry_equiv_pos_as_xyz
1 x,y,z
_cell_length_a                   5.792312
_cell_length_b                   8.421617
_cell_length_c                   29.7106
_cell_angle_alpha                90.0
_cell_angle_beta                 90.0
_cell_angle_gamma                90.0
loop_
_atom_site_label
_atom_site_type_symbol
_atom_site_fract_x
_atom_site_fract_y
_atom_site_fract_z
     1  I          0.61084100       0.29378400       0.83691800
     2  I          0.88915900       0.70621600       0.33691800
     3  I          0.11084100       0.20621600       0.16308200
     4  I          0.38915900       0.79378400       0.66308200
     5  O          0.07871200       0.06731000       0.83318000
     6  O          0.42128800       0.93269000       0.33318000
     7  O          0.57871200       0.43269000       0.16682000
     8  O          0.92128800       0.56731000       0.66682000
     9  O          0.61718600       0.23319000       0.94728000
    10  O          0.88281400       0.76681000       0.44728000
    11  O          0.11718600       0.26681000       0.05272000
    12  O          0.38281400       0.73319000       0.55272000
    13  N          0.81768700       0.17261000       0.88347000
    14  N          0.68231300       0.82739000       0.38347000
    15  N          0.31768700       0.32739000       0.11653000
    16  N          0.18231300       0.67261000       0.61653000
    17  C          0.01561400       0.09028900       0.87137000
    18  C          0.48438600       0.90971100       0.37137000
    19  C          0.51561400       0.40971100       0.12863000
    20  C         -0.01561400       0.59028900       0.62863000
    21  C          0.13931700       0.03728800       0.91397000
    22  C          0.36068300       0.96271200       0.41397000
    23  C          0.63931700       0.46271200       0.08603000
    24  C          0.86068300       0.53728800       0.58603000
    25  H          0.29260000       0.08850000       0.91650000
    26  H          0.20740000       0.91150000       0.41650000
    27  H          0.79260000       0.41150000       0.08350000
    28  H          0.70740000       0.58850000       0.58350000
    29  H          0.15960000       0.92060000       0.91440000
    30  H          0.34040000       0.07940000       0.41440000
    31  H          0.65960000       0.57940000       0.08560000
    32  H          0.84040000       0.42060000       0.58560000
    33  C         -0.02020000       0.09108700       0.95207000
    34  C          0.52020000       0.90891300       0.45207000
    35  C          0.47980000       0.40891300       0.04793000
    36  C          0.02020000       0.59108700       0.54793000
    37  H          0.92290000      -0.00150000       0.96930000
    38  H          0.57710000       0.00150000       0.46930000
    39  H          0.42290000       0.50150000       0.03070000
    40  H          0.07710000       0.49850000       0.53070000
    41  H          0.06270000       0.16310000       0.97290000
    42  H          0.43730000       0.83690000       0.47290000
    43  H          0.56270000       0.33690000       0.02710000
    44  H          0.93730000       0.66310000       0.52710000
    45  C          0.78258300       0.17638900       0.92967000
    46  C          0.71741700       0.82361100       0.42967000
    47  C          0.28258300       0.32361100       0.07033000
    48  C          0.21741700       0.67638900       0.57033000
    49  O          0.37558500       0.44552000       0.78598000
    50  O          0.12441500       0.55448000       0.28598000
    51  O          0.87558500       0.05448000       0.21402000
    52  O          0.62441500       0.94552000       0.71402000
    53  N          0.33058600       0.36882000       0.74728000
    54  N          0.16941400       0.63118000       0.24728000
    55  N          0.83058600       0.13118000       0.25272000
    56  N          0.66941400       0.86882000       0.75272000
    57  C          0.14008100       0.27848800       0.74446000
    58  C          0.35991900       0.72151200       0.24446000
    59  C          0.64008100       0.22151200       0.25554000
    60  C          0.85991900       0.77848800       0.75554000
    61  H          0.04840000       0.26100000       0.77050000
    62  H          0.45160000       0.73900000       0.27050000
    63  H          0.54840000       0.23900000       0.22950000
    64  H          0.95160000       0.76100000       0.72950000
    65  C          0.07668400       0.21118800       0.70417000
    66  C          0.42331600       0.78881200       0.20417000
    67  C          0.57668400       0.28881200       0.29583000
    68  C          0.92331600       0.71118800       0.79583000
    69  H          0.94040000       0.14870000       0.70260000
    70  H          0.55960000       0.85130000       0.20260000
    71  H          0.44040000       0.35130000       0.29740000
    72  H          0.05960000       0.64870000       0.79740000
    73  C          0.21068500       0.23361000       0.66577000
    74  C          0.28931500       0.76639000       0.16577000
    75  C          0.71068500       0.26639000       0.33423000
    76  C          0.78931500       0.73361000       0.83423000
    77  C          0.41148400       0.31948800       0.67087000
    78  C          0.08851600       0.68051200       0.17087000
    79  C          0.91148400       0.18051200       0.32913000
    80  C          0.58851600       0.81948800       0.82913000
    81  H          0.51230000       0.33120000       0.64590000
    82  H         -0.01230000       0.66880000       0.14590000
    83  H          0.01230000       0.16880000       0.35410000
    84  H          0.48770000       0.83120000       0.85410000
    85  C          0.46948200       0.38848900       0.71117000
    86  C          0.03051800       0.61151100       0.21117000
    87  C          0.96948200       0.11151100       0.28883000
    88  C          0.53051800       0.88848900       0.78883000
    89  H          0.60670000       0.44970000       0.71370000
    90  H          0.89330000       0.55030000       0.21370000
    91  H          0.10670000       0.05030000       0.28630000
    92  H          0.39330000       0.94970000       0.78630000
    93  C          0.13838200       0.16769000       0.62127000
    94  C          0.36161800       0.83231000       0.12127000
    95  C          0.63838200       0.33231000       0.37873000
    96  C          0.86161800       0.66769000       0.87873000
    97  C          0.93548200       0.07758800       0.61657000
    98  C          0.56451800       0.92241200       0.11657000
    99  C          0.43548200       0.42241200       0.38343000
   100  C          0.06451800       0.57758800       0.88343000
   101  H          0.84510000       0.05650000       0.64260000
   102  H          0.65490000       0.94350000       0.14260000
   103  H          0.34510000       0.44350000       0.35740000
   104  H          0.15490000       0.55650000       0.85740000
   105  C          0.86270000       0.01908700       0.57586000
   106  C          0.63730000       0.98091300       0.07586000
   107  C          0.36270000       0.48091300       0.42414000
   108  C          0.13730000       0.51908700       0.92414000
   109  H          0.72460000       0.95950000       0.57330000
   110  H          0.77540000       0.04050000       0.07330000
   111  H          0.22460000       0.54050000       0.42670000
   112  H          0.27540000       0.45950000       0.92670000
   113  C          0.00480000       0.05108700       0.53716000
   114  C          0.49520000       0.94891300       0.03716000
   115  C          0.50480000       0.44891300       0.46284000
   116  C         -0.00480000       0.55108700       0.96284000
   117  H          0.96120000       0.01010000       0.50860000
   118  H          0.53880000      -0.01010000       0.00860000
   119  H          0.46120000       0.48990000       0.49140000
   120  H          0.03880000       0.51010000       0.99140000
   121  C          0.19770000       0.13838700       0.54096000
   122  C          0.30230000       0.86161300       0.04096000
   123  C          0.69770000       0.36161300       0.45904000
   124  C          0.80230000       0.63838700       0.95904000
   125  H          0.28980000       0.15900000       0.51520000
   126  H          0.21020000       0.84100000       0.01520000
   127  H          0.78980000       0.34100000       0.48480000
   128  H          0.71020000       0.65900000       0.98480000
   129  C          0.26480000       0.19928800       0.58286000
   130  C          0.23520000       0.80071200       0.08286000
   131  C          0.76480000       0.30071200       0.41714000
   132  C          0.73520000       0.69928800       0.91714000
   133  H          0.39940000       0.26340000       0.58490000
   134  H          0.10060000       0.73660000       0.08490000
   135  H          0.89940000       0.23660000       0.41510000
   136  H          0.60060000       0.76340000       0.91510000
