data_ZUZBED
_symmetry_space_group_name_H-M    'P1'
_symmetry_Int_Tables_number       1
loop_
_symmetry_equiv_pos_site_id
_symmetry_equiv_pos_as_xyz
1 x,y,z
_cell_length_a                   12.2773
_cell_length_b                   10.2832
_cell_length_c                   14.9723
_cell_angle_alpha                90.0
_cell_angle_beta                 106.713
_cell_angle_gamma                90.0
loop_
_atom_site_label
_atom_site_type_symbol
_atom_site_fract_x
_atom_site_fract_y
_atom_site_fract_z
     1  I          0.18396300       0.12157300       0.15788200
     2  I          0.81603700       0.62157300       0.34211800
     3  I          0.81603700       0.87842700       0.84211800
     4  I          0.18396300       0.37842700       0.65788200
     5  S          0.40300120       0.92710870       0.19487800
     6  S          0.59699880       0.42710870       0.30512200
     7  S          0.59699880       0.07289130       0.80512200
     8  S          0.40300120       0.57289130       0.69487800
     9  O          0.20643000       0.98417000       0.95828000
    10  O          0.79357000       0.48417000       0.54172000
    11  O          0.79357000       0.01583000       0.04172000
    12  O          0.20643000       0.51583000       0.45828000
    13  O          0.46623000       0.03464000       0.24302000
    14  O          0.53377000       0.53464000       0.25698000
    15  O          0.53377000       0.96536000       0.75698000
    16  O          0.46623000       0.46536000       0.74302000
    17  O          0.37504000       0.82766000       0.25032000
    18  O          0.62496000       0.32766000       0.24968000
    19  O          0.62496000       0.17234000       0.74968000
    20  O          0.37504000       0.67234000       0.75032000
    21  N          0.28703000       0.97896000       0.11652000
    22  N          0.71297000       0.47896000       0.38348000
    23  N          0.71297000       0.02104000       0.88348000
    24  N          0.28703000       0.52104000       0.61652000
    25  C          0.28434000       0.95135000       0.02573000
    26  C          0.71566000       0.45135000       0.47427000
    27  C          0.71566000       0.04865000       0.97427000
    28  C          0.28434000       0.54865000       0.52573000
    29  C          0.38854000       0.88326000       0.02273000
    30  C          0.61146000       0.38326000       0.47727000
    31  C          0.61146000       0.11674000       0.97727000
    32  C          0.38854000       0.61674000       0.52273000
    33  C          0.46344000       0.86455000       0.11123000
    34  C          0.53656000       0.36455000       0.38877000
    35  C          0.53656000       0.13545000       0.88877000
    36  C          0.46344000       0.63545000       0.61123000
    37  C          0.56915000       0.80955000       0.12464000
    38  C          0.43085000       0.30955000       0.37536000
    39  C          0.43085000       0.19045000       0.87536000
    40  C          0.56915000       0.69045000       0.62464000
    41  H          0.61910000       0.79700000       0.18550000
    42  H          0.38090000       0.29700000       0.31450000
    43  H          0.38090000       0.20300000       0.81450000
    44  H          0.61910000       0.70300000       0.68550000
    45  C          0.60005000       0.77325000       0.04594000
    46  C          0.39995000       0.27325000       0.45406000
    47  C          0.39995000       0.22675000       0.95406000
    48  C          0.60005000       0.72675000       0.54594000
    49  H          0.67300000       0.73680000       0.05260000
    50  H          0.32700000       0.23680000       0.44740000
    51  H          0.32700000       0.26320000       0.94740000
    52  H          0.67300000       0.76320000       0.55260000
    53  C          0.52505000       0.78975000       0.95766000
    54  C          0.47495000       0.28975000       0.54234000
    55  C          0.47495000       0.21025000       0.04234000
    56  C          0.52505000       0.71025000       0.45766000
    57  H          0.54710000       0.76300000       0.90470000
    58  H          0.45290000       0.26300000       0.59530000
    59  H          0.45290000       0.23700000       0.09530000
    60  H          0.54710000       0.73700000       0.40470000
    61  C          0.42035000       0.84375000       0.94527000
    62  C          0.57965000       0.34375000       0.55473000
    63  C          0.57965000       0.15625000       0.05473000
    64  C          0.42035000       0.65625000       0.44527000
    65  H          0.36970000       0.85410000       0.88440000
    66  H          0.63030000       0.35410000       0.61560000
    67  H          0.63030000       0.14590000       0.11560000
    68  H          0.36970000       0.64590000       0.38440000
    69  O          0.08163000       0.28203000       0.20682000
    70  O          0.91837000       0.78203000       0.29318000
    71  O          0.91837000       0.71797000       0.79318000
    72  O          0.08163000       0.21797000       0.70682000
    73  N          0.02003000       0.23894000       0.26223000
    74  N          0.97997000       0.73894000       0.23777000
    75  N          0.97997000       0.76106000       0.73777000
    76  N          0.02003000       0.26106000       0.76223000
    77  C          0.93516000       0.15195000       0.23034000
    78  C          0.06484000       0.65195000       0.26966000
    79  C          0.06484000       0.84805000       0.76966000
    80  C          0.93516000       0.34805000       0.73034000
    81  H          0.91950000       0.11980000       0.16840000
    82  H          0.08050000       0.61980000       0.33160000
    83  H          0.08050000       0.88020000       0.83160000
    84  H          0.91950000       0.38020000       0.66840000
    85  C          0.87266000       0.11035000       0.28543000
    86  C          0.12734000       0.61035000       0.21457000
    87  C          0.12734000       0.88965000       0.71457000
    88  C          0.87266000       0.38965000       0.78543000
    89  H          0.81310000       0.04960000       0.26140000
    90  H          0.18690000       0.54960000       0.23860000
    91  H          0.18690000       0.95040000       0.73860000
    92  H          0.81310000       0.45040000       0.76140000
    93  C          0.89366000       0.15465000       0.37753000
    94  C          0.10634000       0.65465000       0.12247000
    95  C          0.10634000       0.84535000       0.62247000
    96  C          0.89366000       0.34535000       0.87753000
    97  C          0.97975000       0.24595000       0.40604000
    98  C          0.02025000       0.74595000       0.09396000
    99  C          0.02025000       0.75405000       0.59396000
   100  C          0.97975000       0.25405000       0.90604000
   101  H         -0.00490000       0.28220000       0.46670000
   102  H          0.00490000       0.78220000       0.03330000
   103  H          0.00490000       0.71780000       0.53330000
   104  H         -0.00490000       0.21780000       0.96670000
   105  C          0.04325000       0.28515000       0.34944000
   106  C          0.95675000       0.78515000       0.15056000
   107  C          0.95675000       0.71485000       0.65056000
   108  C          0.04325000       0.21485000       0.84944000
   109  H          0.10380000       0.34500000       0.37190000
   110  H          0.89620000       0.84500000       0.12810000
   111  H          0.89620000       0.65500000       0.62810000
   112  H          0.10380000       0.15500000       0.87190000
   113  C          0.82666000       0.11105000       0.43893000
   114  C          0.17334000       0.61105000       0.06107000
   115  C          0.17334000       0.88895000       0.56107000
   116  C          0.82666000       0.38895000       0.93893000
   117  C          0.71305000       0.07665000       0.40444000
   118  C          0.28695000       0.57665000       0.09556000
   119  C          0.28695000       0.92335000       0.59556000
   120  C          0.71305000       0.42335000       0.90444000
   121  H          0.67780000       0.07890000       0.33900000
   122  H          0.32220000       0.57890000       0.16100000
   123  H          0.32220000       0.92110000       0.66100000
   124  H          0.67780000       0.42110000       0.83900000
   125  C          0.65115000       0.03955000       0.46264000
   126  C          0.34885000       0.53955000       0.03736000
   127  C          0.34885000       0.96045000       0.53736000
   128  C          0.65115000       0.46045000       0.96264000
   129  H          0.57350000       0.01620000       0.43750000
   130  H          0.42650000       0.51620000       0.06250000
   131  H          0.42650000       0.98380000       0.56250000
   132  H          0.57350000       0.48380000       0.93750000
   133  C          0.70055000       0.03575000       0.55734000
   134  C          0.29945000       0.53575000       0.94266000
   135  C          0.29945000       0.96425000       0.44266000
   136  C          0.70055000       0.46425000       0.05734000
   137  H          0.65700000       0.01210000       0.59790000
   138  H          0.34300000       0.51210000       0.90210000
   139  H          0.34300000      -0.01210000       0.40210000
   140  H          0.65700000       0.48790000       0.09790000
   141  C          0.81394000       0.06636000       0.59274000
   142  C          0.18606000       0.56636000       0.90726000
   143  C          0.18606000       0.93364000       0.40726000
   144  C          0.81394000       0.43364000       0.09274000
   145  H          0.84920000       0.06070000       0.65800000
   146  H          0.15080000       0.56070000       0.84200000
   147  H          0.15080000       0.93930000       0.34200000
   148  H          0.84920000       0.43930000       0.15800000
   149  C          0.87705000       0.10485000       0.53514000
   150  C          0.12295000       0.60485000       0.96486000
   151  C          0.12295000       0.89515000       0.46486000
   152  C          0.87705000       0.39515000       0.03514000
   153  H          0.95490000       0.12730000       0.56070000
   154  H          0.04510000       0.62730000       0.93930000
   155  H          0.04510000       0.87270000       0.43930000
   156  H          0.95490000       0.37270000       0.06070000
