data_ZUZBAZ
_symmetry_space_group_name_H-M    'P1'
_symmetry_Int_Tables_number       1
loop_
_symmetry_equiv_pos_site_id
_symmetry_equiv_pos_as_xyz
1 x,y,z
_cell_length_a                   7.270515
_cell_length_b                   8.763118
_cell_length_c                   12.7653
_cell_angle_alpha                109.123
_cell_angle_beta                 99.973
_cell_angle_gamma                90.543
loop_
_atom_site_label
_atom_site_type_symbol
_atom_site_fract_x
_atom_site_fract_y
_atom_site_fract_z
     1  I          0.25647300       0.70967300       0.25876200
     2  I          0.74352700       0.29032700       0.74123800
     3  S          0.23006110       0.35762100       0.29508700
     4  S          0.76993890       0.64237900       0.70491300
     5  O          0.25384000       0.74663000       0.53112000
     6  O          0.74616000       0.25337000       0.46888000
     7  O          0.05773000       0.30213000       0.21702000
     8  O          0.94227000       0.69787000       0.78298000
     9  O          0.39753000       0.31093000       0.25242000
    10  O          0.60247000       0.68907000       0.74758000
    11  N          0.23974000       0.55603000       0.35703000
    12  N          0.76026000       0.44397000       0.64297000
    13  C          0.24504000       0.60644000       0.47143000
    14  C          0.75496000       0.39356000       0.52857000
    15  C          0.23524000       0.46254000       0.50843000
    16  C          0.76476000       0.53746000       0.49157000
    17  C          0.22794000       0.31744000       0.42013000
    18  C          0.77206000       0.68256000       0.57987000
    19  C          0.21745000       0.16884000       0.43553000
    20  C          0.78255000       0.83116000       0.56447000
    21  H          0.21240000       0.07060000       0.37420000
    22  H          0.78760000       0.92940000       0.62580000
    23  C          0.21435000       0.16855000       0.54334000
    24  C          0.78565000       0.83145000       0.45666000
    25  H          0.20810000       0.06840000       0.55680000
    26  H          0.79190000       0.93160000       0.44320000
    27  C          0.22015000       0.31255000       0.63204000
    28  C          0.77985000       0.68745000       0.36796000
    29  H          0.21640000       0.30910000       0.70520000
    30  H          0.78360000       0.69090000       0.29480000
    31  C          0.23134000       0.46065000       0.61663000
    32  C          0.76866000       0.53935000       0.38337000
    33  H          0.23610000       0.55860000       0.67810000
    34  H          0.76390000       0.44140000       0.32190000
    35  O          0.28303000       0.88143000       0.15682000
    36  O          0.71697000       0.11857000       0.84318000
    37  N          0.46014000       0.89084000       0.13953000
    38  N          0.53986000       0.10916000       0.86047000
    39  C          0.58625000      -0.00376000       0.22183000
    40  C          0.41375000       0.00376000       0.77817000
    41  H          0.54910000       0.05980000       0.28980000
    42  H          0.45090000       0.94020000       0.71020000
    43  C          0.76565000       0.01245000       0.20864000
    44  C          0.23435000      -0.01245000       0.79136000
    45  H          0.85410000       0.08710000       0.26670000
    46  H          0.14590000       0.91290000       0.73330000
    47  C          0.81785000       0.91996000       0.11064000
    48  C          0.18215000       0.08004000       0.88936000
    49  H          0.94290000       0.92930000       0.09990000
    50  H          0.05710000       0.07070000       0.90010000
    51  C          0.68656000       0.81316000       0.02794000
    52  C          0.31344000       0.18684000       0.97206000
    53  H          0.72190000       0.74970000       0.95930000
    54  H          0.27810000       0.25030000       0.04070000
    55  C          0.50385000       0.79595000       0.04203000
    56  C          0.49615000       0.20405000       0.95797000
    57  C          0.35377000       0.68157000       0.95676000
    58  C          0.64623000       0.31843000       0.04324000
    59  H          0.30520000       0.60710000      -0.00990000
    60  H          0.69480000       0.39290000       0.00990000
    61  H          0.40550000       0.61960000       0.89080000
    62  H          0.59450000       0.38040000       0.10920000
    63  H          0.25190000       0.74290000       0.93370000
    64  H          0.74810000       0.25710000       0.06630000
