data_ZUZDED
_symmetry_space_group_name_H-M    'P1'
_symmetry_Int_Tables_number       1
loop_
_symmetry_equiv_pos_site_id
_symmetry_equiv_pos_as_xyz
1 x,y,z
_cell_length_a                   11.8063
_cell_length_b                   13.1523
_cell_length_c                   15.2361
_cell_angle_alpha                90.0
_cell_angle_beta                 90.0
_cell_angle_gamma                90.0
loop_
_atom_site_label
_atom_site_type_symbol
_atom_site_fract_x
_atom_site_fract_y
_atom_site_fract_z
     1  O          0.77263000       0.58193000       0.59762000
     2  O          0.72737000       0.41807000       0.09762000
     3  O          0.27263000       0.91807000       0.40238000
     4  O          0.22737000       0.08193000       0.90238000
     5  O          0.61433000       0.62383000       0.66802000
     6  O          0.88567000       0.37617000       0.16802000
     7  O          0.11433000       0.87617000       0.33198000
     8  O          0.38567000       0.12383000       0.83198000
     9  O          0.75034000       0.32393000       0.87002000
    10  O          0.74966000       0.67607000       0.37002000
    11  O          0.25034000       0.17607000       0.12998000
    12  O          0.24966000       0.82393000       0.62998000
    13  O          0.72353000       0.47573000       0.92882000
    14  O          0.77647000       0.52427000       0.42882000
    15  O          0.22353000       0.02427000       0.07118000
    16  O          0.27647000       0.97573000       0.57118000
    17  O          0.87082000       0.51672000       0.74972000
    18  O          0.62918000       0.48328000       0.24972000
    19  O          0.37082000       0.98328000       0.25028000
    20  O          0.12918000       0.01672000       0.75028000
    21  O          0.92573000       0.67983000       0.74483000
    22  O          0.57427000       0.32017000       0.24483000
    23  O          0.42573000       0.82017000       0.25517000
    24  O          0.07427000       0.17983000       0.75517000
    25  O          0.68643000       0.39033000       0.70892000
    26  O          0.81357000       0.60967000       0.20892000
    27  O          0.18643000       0.10967000       0.29108000
    28  O          0.31357000       0.89033000       0.79108000
    29  O          0.51913000       0.32993000       0.75273000
    30  O          0.98087000       0.67007000       0.25273000
    31  O          0.01913000       0.17007000       0.24727000
    32  O          0.48087000       0.82993000       0.74727000
    33  C          0.71664000       0.58814000       0.66223000
    34  C          0.78336000       0.41186000       0.16223000
    35  C          0.21664000       0.91186000       0.33777000
    36  C          0.28336000       0.08814000       0.83777000
    37  C          0.75554000       0.55023000       0.75263000
    38  C          0.74446000       0.44977000       0.25263000
    39  C          0.25554000       0.94977000       0.24737000
    40  C          0.24446000       0.05023000       0.74737000
    41  C          0.95024000       0.59124000       0.74523000
    42  C          0.54976000       0.40876000       0.24523000
    43  C          0.45024000       0.90876000       0.25477000
    44  C          0.04976000       0.09124000       0.75477000
    45  C          0.06564000       0.54963000       0.74363000
    46  C          0.43436000       0.45037000       0.24363000
    47  C          0.56564000       0.95037000       0.25637000
    48  C          0.93436000       0.04963000       0.75637000
    49  C          0.15425000       0.61664000       0.73134000
    50  C          0.34575000       0.38336000       0.23134000
    51  C          0.65425000       0.88336000       0.26866000
    52  C          0.84575000       0.11664000       0.76866000
    53  C          0.26485000       0.58025000       0.72944000
    54  C          0.23515000       0.41975000       0.22944000
    55  C          0.76485000       0.91975000       0.27056000
    56  C          0.73515000       0.08025000       0.77056000
    57  C          0.28545000       0.47915000       0.74034000
    58  C          0.21455000       0.52085000       0.24034000
    59  C          0.78545000       0.02085000       0.25966000
    60  C          0.71455000       0.97915000       0.75966000
    61  C          0.19835000       0.41304000       0.75084000
    62  C          0.30165000       0.58696000       0.25084000
    63  C          0.69835000       0.08696000       0.24916000
    64  C          0.80165000       0.91304000       0.74916000
    65  C          0.08774000       0.44673000       0.75203000
    66  C          0.41226000       0.55327000       0.25203000
    67  C          0.58774000       0.05327000       0.24797000
    68  C          0.91226000       0.94673000       0.74797000
    69  C          0.68404000       0.46093000       0.77923000
    70  C          0.81596000       0.53907000       0.27923000
    71  C          0.18404000       0.03907000       0.22077000
    72  C          0.31596000       0.96093000       0.72077000
    73  C          0.72494000       0.41034000       0.86383000
    74  C          0.77506000       0.58966000       0.36383000
    75  C          0.22494000       0.08966000       0.13617000
    76  C          0.27506000       0.91034000       0.63617000
    77  C          0.59564000       0.32784000       0.70043000
    78  C          0.90436000       0.67216000       0.20043000
    79  C          0.09564000       0.17216000       0.29957000
    80  C          0.40436000       0.82784000       0.79957000
    81  C          0.60025000       0.26304000       0.62213000
    82  C          0.89975000       0.73696000       0.12213000
    83  C          0.10025000       0.23696000       0.37787000
    84  C          0.39975000       0.76304000       0.87787000
    85  C          0.51306000       0.19935000       0.60715000
    86  C          0.98694000       0.80065000       0.10715000
    87  C          0.01306000       0.30065000       0.39285000
    88  C          0.48694000       0.69935000       0.89285000
    89  C          0.51409000       0.13667000       0.53417000
    90  C          0.98591000       0.86333000       0.03417000
    91  C          0.01409000       0.36333000       0.46583000
    92  C          0.48591000       0.63667000       0.96583000
    93  C          0.60171200       0.14139000       0.47586000
    94  C          0.89828800       0.85861000       0.97586000
    95  C          0.10171200       0.35861000       0.52414000
    96  C          0.39828800       0.64139000       0.02414000
    97  C          0.68931000       0.20658000       0.49155000
    98  C          0.81069000       0.79342000      -0.00845000
    99  C          0.18931000       0.29342000       0.50845000
   100  C          0.31069000       0.70658000       0.00845000
   101  C          0.69017000       0.26815000       0.56494000
   102  C          0.80983000       0.73185000       0.06494000
   103  C          0.19017000       0.23185000       0.43506000
   104  C          0.30983000       0.76815000       0.93506000
   105  H          0.57410000       0.64420000       0.62480000
   106  H          0.92590000       0.35580000       0.12480000
   107  H          0.07410000       0.85580000       0.37520000
   108  H          0.42590000       0.14420000       0.87520000
   109  H          0.74420000       0.44010000      -0.00350000
   110  H          0.75580000       0.55990000       0.49650000
   111  H          0.24420000       0.05990000       0.00350000
   112  H          0.25580000       0.94010000       0.50350000
   113  H          0.74860000       0.60430000       0.79460000
   114  H          0.75140000       0.39570000       0.29460000
   115  H          0.24860000       0.89570000       0.20540000
   116  H          0.25140000       0.10430000       0.70540000
   117  H          0.13790000       0.68760000       0.72390000
   118  H          0.36210000       0.31240000       0.22390000
   119  H          0.63790000       0.81240000       0.27610000
   120  H          0.86210000       0.18760000       0.77610000
   121  H          0.32660000       0.62630000       0.72030000
   122  H          0.17340000       0.37370000       0.22030000
   123  H          0.82660000       0.87370000       0.27970000
   124  H          0.67340000       0.12630000       0.77970000
   125  H          0.36180000       0.45410000       0.74060000
   126  H          0.13820000       0.54590000       0.24060000
   127  H          0.86180000       0.04590000       0.25940000
   128  H          0.63820000       0.95410000       0.75940000
   129  H          0.21460000       0.34180000       0.75690000
   130  H          0.28540000       0.65820000       0.25690000
   131  H          0.71460000       0.15820000       0.24310000
   132  H          0.78540000       0.84180000       0.74310000
   133  H          0.02650000       0.39940000       0.75930000
   134  H          0.47350000       0.60060000       0.25930000
   135  H          0.52650000       0.10060000       0.24070000
   136  H          0.97350000       0.89940000       0.74070000
   137  H          0.60730000       0.48300000       0.78820000
   138  H          0.89270000       0.51700000       0.28820000
   139  H          0.10730000       0.01700000       0.21180000
   140  H          0.39270000       0.98300000       0.71180000
   141  H          0.45320000       0.19750000       0.64970000
   142  H          0.04680000       0.80250000       0.14970000
   143  H          0.95320000       0.30250000       0.35030000
   144  H          0.54680000       0.69750000       0.85030000
   145  H          0.45090000       0.09170000       0.52540000
   146  H          0.04910000       0.90830000       0.02540000
   147  H          0.95090000       0.40830000       0.47460000
   148  H          0.54910000       0.59170000       0.97460000
   149  H          0.59720000       0.09760000       0.42540000
   150  H          0.90280000       0.90240000       0.92540000
   151  H          0.09720000       0.40240000       0.57460000
   152  H          0.40280000       0.59760000       0.07460000
   153  H          0.74880000       0.20710000       0.44860000
   154  H          0.75120000       0.79290000       0.94860000
   155  H          0.24880000       0.29290000       0.55140000
   156  H          0.25120000       0.70710000       0.05140000
   157  H          0.75380000       0.31120000       0.57700000
   158  H          0.74620000       0.68880000       0.07700000
   159  H          0.25380000       0.18880000       0.42300000
   160  H          0.24620000       0.81120000       0.92300000
   161  C          0.59821600       0.83099000       0.52809000
   162  C          0.90178400       0.16901000       0.02809000
   163  C          0.09821600       0.66901000       0.47191000
   164  C          0.40178400       0.33099000       0.97191000
   165  C          0.51621200       0.77061200       0.49458000
   166  C          0.98378800       0.22938800      -0.00542000
   167  C          0.01621200       0.72938800       0.50542000
   168  C          0.48378800       0.27061200       0.00542000
   169  O          0.52244000       0.66846000       0.52143000
   170  O          0.97756000       0.33154000       0.02143000
   171  O          0.02244000       0.83154000       0.47857000
   172  O          0.47756000       0.16846000       0.97857000
   173  C          0.44331300       0.60851700       0.48771000
   174  C          0.05668700       0.39148300       0.98771000
   175  C          0.94331300       0.89148300       0.51229000
   176  C          0.55668700       0.10851700       0.01229000
   177  C          0.45621600       0.50201300       0.50461200
   178  C          0.04378400       0.49798700       0.00461200
   179  C          0.95621600      -0.00201300       0.49538800
   180  C          0.54378400       0.00201300      -0.00461200
   181  H          0.59080000       0.90060000       0.51010000
   182  H          0.90920000       0.09940000       0.01010000
   183  H          0.09080000       0.59940000       0.48990000
   184  H          0.40920000       0.40060000       0.98990000
   185  H          0.59750000       0.82700000       0.59090000
   186  H          0.90250000       0.17300000       0.09090000
   187  H          0.09750000       0.67300000       0.40910000
   188  H          0.40250000       0.32700000       0.90910000
   189  H          0.66840000       0.80400000       0.50630000
   190  H          0.83160000       0.19600000       0.00630000
   191  H          0.16840000       0.69600000       0.49370000
   192  H          0.33160000       0.30400000      -0.00630000
   193  H          0.51610000       0.77470000       0.43160000
   194  H          0.98390000       0.22530000       0.93160000
   195  H          0.01610000       0.72530000       0.56840000
   196  H          0.48390000       0.27470000       0.06840000
   197  H          0.44570000       0.79760000       0.51570000
   198  H          0.05430000       0.20240000       0.01570000
   199  H          0.94570000       0.70240000       0.48430000
   200  H          0.55430000       0.29760000       0.98430000
   201  H          0.43490000       0.62260000       0.42620000
   202  H          0.06510000       0.37740000       0.92620000
   203  H          0.93490000       0.87740000       0.57380000
   204  H          0.56510000       0.12260000       0.07380000
   205  H          0.37400000       0.62720000       0.51630000
   206  H          0.12600000       0.37280000       0.01630000
   207  H          0.87400000       0.87280000       0.48370000
   208  H          0.62600000       0.12720000       0.98370000
   209  H          0.39340000       0.46490000       0.48050000
   210  H          0.10660000       0.53510000       0.98050000
   211  H          0.89340000       0.03510000       0.51950000
   212  H          0.60660000       0.96490000       0.01950000
   213  H          0.52460000       0.48240000       0.47490000
   214  H          0.97540000       0.51760000       0.97490000
   215  H          0.02460000       0.01760000       0.52510000
   216  H          0.47540000       0.98240000       0.02510000
   217  H          0.46310000       0.48720000       0.56600000
   218  H          0.03690000       0.51280000       0.06600000
   219  H          0.96310000       0.01280000       0.43400000
   220  H          0.53690000       0.98720000       0.93400000
