data_ZZZHEM01
_symmetry_space_group_name_H-M    'P1'
_symmetry_Int_Tables_number       1
loop_
_symmetry_equiv_pos_site_id
_symmetry_equiv_pos_as_xyz
1 x,y,z
_cell_length_a                   5.90772
_cell_length_b                   13.70524
_cell_length_c                   11.89404
_cell_angle_alpha                90.0
_cell_angle_beta                 99.2733
_cell_angle_gamma                90.0
loop_
_atom_site_label
_atom_site_type_symbol
_atom_site_fract_x
_atom_site_fract_y
_atom_site_fract_z
     1  Br         0.75984600       0.40550300       0.61093300
     2  Br         0.24015400       0.90550300       0.88906700
     3  Br         0.24015400       0.59449700       0.38906700
     4  Br         0.75984600       0.09449700       0.11093300
     5  Br         0.02205700       0.53323300       0.72933400
     6  Br        -0.02205700       0.03323300       0.77066600
     7  Br        -0.02205700       0.46676700       0.27066600
     8  Br         0.02205700       0.96676700       0.22933400
     9  N          0.19625000       0.21612000       0.47403000
    10  N          0.80375000       0.71612000       0.02597000
    11  N          0.80375000       0.78388000       0.52597000
    12  N          0.19625000       0.28388000       0.97403000
    13  N          0.54376000       0.11662000       0.51363000
    14  N          0.45624000       0.61662000       0.98637000
    15  N          0.45624000       0.88338000       0.48637000
    16  N          0.54376000       0.38338000       0.01363000
    17  N          0.56735000       0.29392000       0.52233000
    18  N          0.43265000       0.79392000       0.97767000
    19  N          0.43265000       0.70608000       0.47767000
    20  N          0.56735000       0.20608000       0.02233000
    21  N          0.46836000       0.21422000       0.33883000
    22  N          0.53164000       0.71422000       0.16117000
    23  N          0.53164000       0.78578000       0.66117000
    24  N          0.46836000       0.28578000       0.83883000
    25  C          0.58957000       0.29593000       0.39843000
    26  C          0.41043000       0.79593000       0.10157000
    27  C          0.41043000       0.70407000       0.60157000
    28  C          0.58957000       0.20407000       0.89843000
    29  H          0.52582700       0.35780200       0.36398100
    30  H          0.47417300       0.85780200       0.13601900
    31  H          0.47417300       0.64219800       0.63601900
    32  H          0.52582700       0.14219800       0.86398100
    33  H          0.75365700       0.29275900       0.39050200
    34  H          0.24634300       0.79275900       0.10949800
    35  H          0.24634300       0.70724100       0.60949800
    36  H          0.75365700       0.20724100       0.89050200
    37  C          0.56467000       0.12263000       0.39213000
    38  C          0.43533000       0.62263000       0.10787000
    39  C          0.43533000       0.87737000       0.60787000
    40  C          0.56467000       0.37737000       0.89213000
    41  H          0.48378100       0.06651200       0.35131500
    42  H          0.51621900       0.56651200       0.14868500
    43  H          0.51621900       0.93348800       0.64868500
    44  H          0.48378100       0.43348800       0.85131500
    45  H          0.72853800       0.11807600       0.38423700
    46  H          0.27146200       0.61807600       0.11576300
    47  H          0.27146200       0.88192400       0.61576300
    48  H          0.72853800       0.38192400       0.88423700
    49  C          0.22387000       0.21963000       0.35343000
    50  C          0.77613000       0.71963000       0.14657000
    51  C          0.77613000       0.78037000       0.64657000
    52  C          0.22387000       0.28037000       0.85343000
    53  H          0.15630700       0.28096300       0.31913200
    54  H          0.84369300       0.78096300       0.18086800
    55  H          0.84369300       0.71903700       0.68086800
    56  H          0.15630700       0.21903700       0.81913200
    57  H          0.13906100       0.16448200       0.31242700
    58  H          0.86093900       0.66448200       0.18757300
    59  H          0.86093900       0.83551800       0.68757300
    60  H          0.13906100       0.33551800       0.81242700
    61  C          0.66527000       0.19823000       0.57353000
    62  C          0.33473000       0.69823000       0.92647000
    63  C          0.33473000       0.80177000       0.42647000
    64  C          0.66527000       0.30177000       0.07353000
    65  H          0.83025700       0.19406600       0.56771800
    66  H          0.16974300       0.69406600       0.93228200
    67  H          0.16974300       0.80593400       0.43228200
    68  H          0.83025700       0.30593400       0.06771800
    69  H          0.65005800       0.19547800       0.65513300
    70  H          0.34994200       0.69547800       0.84486700
    71  H          0.34994200       0.80452200       0.34486700
    72  H          0.65005800       0.30452200       0.15513300
    73  C          0.29737000       0.12443000       0.52344000
    74  C          0.70263000       0.62443000       0.97656000
    75  C          0.70263000       0.87557000       0.47656000
    76  C          0.29737000       0.37557000       0.02344000
    77  H          0.21322900       0.06852200       0.48374100
    78  H          0.78677100       0.56852200       0.01625900
    79  H          0.78677100       0.93147800       0.51625900
    80  H          0.21322900       0.43147800       0.98374100
    81  H          0.28011800       0.12109800       0.60475800
    82  H          0.71988200       0.62109800       0.89524200
    83  H          0.71988200       0.87890200       0.39524200
    84  H          0.28011800       0.37890200       0.10475800
    85  C          0.31636000       0.29863000       0.53383000
    86  C          0.68364000       0.79863000       0.96617000
    87  C          0.68364000       0.70137000       0.46617000
    88  C          0.31636000       0.20137000       0.03383000
    89  H          0.30002600       0.29649900       0.61535400
    90  H          0.69997400       0.79649900       0.88464600
    91  H          0.69997400       0.70350100       0.38464600
    92  H          0.30002600       0.20350100       0.11535400
    93  H          0.24889400       0.36048800       0.50110900
    94  H          0.75110600       0.86048800      -0.00110900
    95  H          0.75110600       0.63951200       0.49889100
    96  H          0.24889400       0.13951200       0.00110900
