data_ABEWAG01
_symmetry_space_group_name_H-M    'P1'
_symmetry_Int_Tables_number       1
loop_
_symmetry_equiv_pos_site_id
_symmetry_equiv_pos_as_xyz
1 x,y,z
_cell_length_a                   5.55414
_cell_length_b                   6.617911
_cell_length_c                   6.9643
_cell_angle_alpha                90.0
_cell_angle_beta                 103.83519
_cell_angle_gamma                90.0
loop_
_atom_site_label
_atom_site_type_symbol
_atom_site_fract_x
_atom_site_fract_y
_atom_site_fract_z
     1  O          0.72786000       0.33566000       0.18558000
     2  O          0.27214000       0.83566000       0.31442000
     3  O          0.27214000       0.66434000       0.81442000
     4  O          0.72786000       0.16434000       0.68558000
     5  C          0.90939000       0.18188000       0.23251300
     6  C          0.09061000       0.68188000       0.26748700
     7  C          0.09061000       0.81812000       0.76748700
     8  C          0.90939000       0.31812000       0.73251300
     9  H          0.91706700       0.11010600       0.11428000
    10  H          0.08293300       0.61010600       0.38572000
    11  H          0.08293300       0.88989400       0.88572000
    12  H          0.91706700       0.38989400       0.61428000
    13  H          0.86604000       0.08968100       0.32530300
    14  H          0.13396000       0.58968100       0.17469700
    15  H          0.13396000       0.91031900       0.67469700
    16  H          0.86604000       0.41031900       0.82530300
    17  H          0.06786700       0.24126800       0.28966600
    18  H          0.93213300       0.74126800       0.21033400
    19  H          0.93213300       0.75873200       0.71033400
    20  H          0.06786700       0.25873200       0.78966600
    21  C          0.49411000       0.25368000       0.08581700
    22  C          0.50589000       0.75368000       0.41418300
    23  C          0.50589000       0.74632000       0.91418300
    24  C          0.49411000       0.24632000       0.58581700
    25  H          0.50609300       0.19893000       0.96078500
    26  H          0.49390700       0.69893000       0.53921500
    27  H          0.49390700       0.80107000       0.03921500
    28  H          0.50609300       0.30107000       0.46078500
    29  H          0.37088500       0.35827000       0.06454500
    30  H          0.62911500       0.85827000       0.43545500
    31  H          0.62911500       0.64173000       0.93545500
    32  H          0.37088500       0.14173000       0.56454500
    33  H          0.44800800       0.14845300       0.16499100
    34  H          0.55199200       0.64845300       0.33500900
    35  H          0.55199200       0.85154700       0.83500900
    36  H          0.44800800       0.35154700       0.66499100
