data_ABEWAG
_symmetry_space_group_name_H-M    'P1'
_symmetry_Int_Tables_number       1
loop_
_symmetry_equiv_pos_site_id
_symmetry_equiv_pos_as_xyz
1 x,y,z
_cell_length_a                   11.34147
_cell_length_b                   11.34147
_cell_length_c                   4.87996
_cell_angle_alpha                90.0
_cell_angle_beta                 90.0
_cell_angle_gamma                90.0
loop_
_atom_site_label
_atom_site_type_symbol
_atom_site_fract_x
_atom_site_fract_y
_atom_site_fract_z
     1  O          0.50024500       0.73370500       0.23289100
     2  O          0.26629500       0.00024500       0.73289100
     3  O          0.23370500       0.49975500       0.73289100
     4  O         -0.00024500       0.76629500       0.23289100
     5  O          0.49975500       0.26629500       0.76710900
     6  O          0.73370500      -0.00024500       0.26710900
     7  O          0.76629500       0.50024500       0.26710900
     8  O          0.00024500       0.23370500       0.76710900
     9  C          0.57566700       0.72640700       0.00254140
    10  C          0.27359300       0.07566700       0.50254140
    11  C          0.22640700       0.42433300       0.50254140
    12  C          0.92433300       0.77359300       0.00254140
    13  C          0.42433300       0.27359300      -0.00254140
    14  C          0.72640700       0.92433300       0.49745860
    15  C          0.77359300       0.57566700       0.49745860
    16  C          0.07566700       0.22640700      -0.00254140
    17  C          0.42730100       0.63302100       0.25144170
    18  C          0.36697900       0.92730100       0.75144170
    19  C          0.13302100       0.57269900       0.75144170
    20  C          0.07269900       0.86697900       0.25144170
    21  C          0.57269900       0.36697900       0.74855830
    22  C          0.63302100       0.07269900       0.24855830
    23  C          0.86697900       0.42730100       0.24855830
    24  C          0.92730100       0.13302100       0.74855830
    25  H          0.62389000       0.79681000      -0.00071800
    26  H          0.20319000       0.12389000       0.49928200
    27  H          0.29681000       0.37611000       0.49928200
    28  H          0.87611000       0.70319000      -0.00071800
    29  H          0.37611000       0.20319000       0.00071800
    30  H          0.79681000       0.87611000       0.50071800
    31  H          0.70319000       0.62389000       0.50071800
    32  H          0.12389000       0.29681000       0.00071800
    33  H          0.62559000       0.65891000       0.01231800
    34  H          0.34109000       0.12559000       0.51231800
    35  H          0.15891000       0.37441000       0.51231800
    36  H          0.87441000       0.84109000       0.01231800
    37  H          0.37441000       0.34109000      -0.01231800
    38  H          0.65891000       0.87441000       0.48768200
    39  H          0.84109000       0.62559000       0.48768200
    40  H          0.12559000       0.15891000      -0.01231800
    41  H          0.47801100       0.56051200       0.26920000
    42  H          0.43948800       0.97801100       0.76920000
    43  H          0.06051200       0.52198900       0.76920000
    44  H          0.02198900       0.93948800       0.26920000
    45  H          0.52198900       0.43948800       0.73080000
    46  H          0.56051200       0.02198900       0.23080000
    47  H          0.93948800       0.47801100       0.23080000
    48  H          0.97801100       0.06051200       0.73080000
    49  H          0.53139000       0.72129000       0.83970000
    50  H          0.27871000       0.03139000       0.33970000
    51  H          0.22129000       0.46861000       0.33970000
    52  H          0.96861000       0.77871000       0.83970000
    53  H          0.46861000       0.27871000       0.16030000
    54  H          0.72129000       0.96861000       0.66030000
    55  H          0.77871000       0.53139000       0.66030000
    56  H          0.03139000       0.22129000       0.16030000
    57  H          0.37759000       0.62739000       0.08830000
    58  H          0.37261000       0.87759000       0.58830000
    59  H          0.12739000       0.62241000       0.58830000
    60  H          0.12241000       0.87261000       0.08830000
    61  H          0.62241000       0.37261000       0.91170000
    62  H          0.62739000       0.12241000       0.41170000
    63  H          0.87261000       0.37759000       0.41170000
    64  H          0.87759000       0.12739000       0.91170000
    65  H          0.37779000       0.64351000       0.41330000
    66  H          0.35649000       0.87779000       0.91330000
    67  H          0.14351000       0.62221000       0.91330000
    68  H          0.12221000       0.85649000       0.41330000
    69  H          0.62221000       0.35649000       0.58670000
    70  H          0.64351000       0.12221000       0.08670000
    71  H          0.85649000       0.37779000       0.08670000
    72  H          0.87779000       0.14351000       0.58670000
