data_ABEWAG04
_symmetry_space_group_name_H-M    'P1'
_symmetry_Int_Tables_number       1
loop_
_symmetry_equiv_pos_site_id
_symmetry_equiv_pos_as_xyz
1 x,y,z
_cell_length_a                   4.339412
_cell_length_b                   8.4142
_cell_length_c                   12.8216
_cell_angle_alpha                90.554
_cell_angle_beta                 93.896
_cell_angle_gamma                90.832
loop_
_atom_site_label
_atom_site_type_symbol
_atom_site_fract_x
_atom_site_fract_y
_atom_site_fract_z
     1  O          0.23539000       0.82665000      -0.00511100
     2  O          0.76461000       0.17335000       0.00511100
     3  C         -0.02879000       0.72985000       0.98659000
     4  C          0.02879000       0.27015000       0.01341000
     5  H          0.95615500       0.67693800       0.91975900
     6  H          0.04384500       0.32306200       0.08024100
     7  H          0.79214100       0.79366000      -0.00654800
     8  H          0.20785900       0.20634000       0.00654800
     9  H         -0.01616900       0.65205700       0.04104200
    10  H          0.01616900       0.34794300       0.95895800
    11  C          0.26881400       0.90258000       0.09251700
    12  C          0.73118600       0.09742000       0.90748300
    13  H          0.45024400       0.96956300       0.09598000
    14  H          0.54975600       0.03043700       0.90402000
    15  H          0.28859200       0.82426800       0.14647700
    16  H          0.71140800       0.17573200       0.85352300
    17  H          0.09066400       0.96595900       0.10221600
    18  H          0.90933600       0.03404100       0.89778400
    19  O          0.83385000       0.51593000       0.19516000
    20  O          0.16615000       0.48407000       0.80484000
    21  C          0.53698000       0.49616000       0.14401000
    22  C          0.46302000       0.50384000       0.85599000
    23  H          0.53899200       0.40988500       0.09445600
    24  H          0.46100800       0.59011500       0.90554400
    25  H          0.48013400       0.59204000       0.10815600
    26  H          0.51986600       0.40796000       0.89184400
    27  H          0.38990900       0.47279600       0.19462400
    28  H          0.61009100       0.52720400       0.80537600
    29  C          0.84631000       0.65745000       0.25781200
    30  C          0.15369000       0.34255000       0.74218800
    31  H          0.78882500       0.74647800       0.21483600
    32  H          0.21117500       0.25352200       0.78516400
    33  H          0.05246200       0.67378200       0.28841100
    34  H          0.94753800       0.32621800       0.71158900
    35  H          0.70595400       0.64705100       0.31214400
    36  H          0.29404600       0.35294900       0.68785600
    37  O          0.70725000       0.01213000       0.29036000
    38  O          0.29275000      -0.01213000       0.70964000
    39  C          0.44879000       0.98014000       0.34821100
    40  C          0.55121000       0.01986000       0.65178900
    41  H          0.26285600      -0.00697500       0.30425400
    42  H          0.73714400       0.00697500       0.69574600
    43  H          0.44939000       0.05262400       0.40652800
    44  H          0.55061000       0.94737600       0.59347200
    45  H          0.45779500       0.87305500       0.37326200
    46  H          0.54220500       0.12694500       0.62673800
    47  C          0.69471200       0.16686000       0.24651100
    48  C          0.30528800       0.83314000       0.75348900
    49  H          0.51390700       0.17437400       0.19938500
    50  H          0.48609300       0.82562600       0.80061500
    51  H          0.87565000       0.18577400       0.20899300
    52  H          0.12435000       0.81422600       0.79100700
    53  H          0.68610200       0.24465900       0.30137400
    54  H          0.31389800       0.75534100       0.69862600
    55  O          0.27075000       0.30823000       0.49547000
    56  O          0.72925000       0.69177000       0.50453000
    57  C          0.00478000       0.21045000       0.50401000
    58  C         -0.00478000       0.78955000       0.49599000
    59  H          0.03402300       0.14450200       0.56447600
    60  H         -0.03402300       0.85549800       0.43552400
    61  H         -0.02770700       0.14455200       0.44257100
    62  H          0.02770700       0.85544800       0.55742900
    63  H          0.82788900       0.27600600       0.51081200
    64  H          0.17211100       0.72399400       0.48918800
    65  C          0.23359000       0.40515000       0.40431000
    66  C          0.76641000       0.59485000       0.59569000
    67  H          0.04754400       0.46507300       0.40669900
    68  H          0.95245600       0.53492700       0.59330100
    69  H          0.22076300       0.33859100       0.34286100
    70  H          0.77923700       0.66140900       0.65713900
    71  H          0.40730700       0.47667600       0.40227600
    72  H          0.59269300       0.52332400       0.59772400
