data_ACEMID01
_symmetry_space_group_name_H-M    'P1'
_symmetry_Int_Tables_number       1
loop_
_symmetry_equiv_pos_site_id
_symmetry_equiv_pos_as_xyz
1 x,y,z
_cell_length_a                   11.5265
_cell_length_b                   11.5265
_cell_length_c                   13.5895
_cell_angle_alpha                90.0
_cell_angle_beta                 90.0
_cell_angle_gamma                120.0
loop_
_atom_site_label
_atom_site_type_symbol
_atom_site_fract_x
_atom_site_fract_y
_atom_site_fract_z
     1  C          0.47670000       0.12550000       0.03330000
     2  C          0.81003333       0.79216667       0.69996667
     3  C          0.14336667       0.45883333       0.36663333
     4  C          0.87450000       0.35120000       0.03330000
     5  C          0.64880000       0.52330000       0.03330000
     6  C          0.20783333       0.01786667       0.69996667
     7  C         -0.01786667       0.18996667       0.69996667
     8  C          0.54116667       0.68453333       0.36663333
     9  C          0.31546667       0.85663333       0.36663333
    10  C          0.87450000       0.52330000       0.53330000
    11  C          0.20783333       0.18996667       0.19996667
    12  C          0.54116667       0.85663333       0.86663333
    13  C          0.64880000       0.12550000       0.53330000
    14  C          0.47670000       0.35120000       0.53330000
    15  C         -0.01786667       0.79216667       0.19996667
    16  C          0.81003333       0.01786667       0.19996667
    17  C          0.31546667       0.45883333       0.86663333
    18  C          0.14336667       0.68453333       0.86663333
    19  C          0.34030000       0.00060000       0.03910000
    20  C          0.67363333       0.66726667       0.70576667
    21  C          0.00696667       0.33393333       0.37243333
    22  C         -0.00060000       0.33970000       0.03910000
    23  C          0.66030000       0.65970000       0.03910000
    24  C          0.33273333       0.00636667       0.70576667
    25  C         -0.00636667       0.32636667       0.70576667
    26  C          0.66606667       0.67303333       0.37243333
    27  C          0.32696667      -0.00696667       0.37243333
    28  C         -0.00060000       0.65970000       0.53910000
    29  C          0.33273333       0.32636667       0.20576667
    30  C          0.66606667      -0.00696667       0.87243333
    31  C          0.66030000       0.00060000       0.53910000
    32  C          0.34030000       0.33970000       0.53910000
    33  C         -0.00636667       0.66726667       0.20576667
    34  C          0.67363333       0.00636667       0.20576667
    35  C          0.32696667       0.33393333       0.87243333
    36  C          0.00696667       0.67303333       0.87243333
    37  H          0.24400000       0.83000000       0.09900000
    38  H          0.57733333       0.49666667       0.76566667
    39  H          0.91066667       0.16333333       0.43233333
    40  H          0.17000000       0.41400000       0.09900000
    41  H          0.58600000       0.75600000       0.09900000
    42  H          0.50333333       0.08066667       0.76566667
    43  H          0.91933333       0.42266667       0.76566667
    44  H          0.83666667       0.74733333       0.43233333
    45  H          0.25266667       0.08933333       0.43233333
    46  H          0.17000000       0.75600000       0.59900000
    47  H          0.50333333       0.42266667       0.26566667
    48  H          0.83666667       0.08933333       0.93233333
    49  H          0.58600000       0.83000000       0.59900000
    50  H          0.24400000       0.41400000       0.59900000
    51  H          0.91933333       0.49666667       0.26566667
    52  H          0.57733333       0.08066667       0.26566667
    53  H          0.25266667       0.16333333       0.93233333
    54  H          0.91066667       0.74733333       0.93233333
    55  H          0.40900000       0.90000000       0.11700000
    56  H          0.74233333       0.56666667       0.78366667
    57  H          0.07566667       0.23333333       0.45033333
    58  H          0.10000000       0.50900000       0.11700000
    59  H          0.49100000       0.59100000       0.11700000
    60  H          0.43333333       0.17566667       0.78366667
    61  H          0.82433333       0.25766667       0.78366667
    62  H          0.76666667       0.84233333       0.45033333
    63  H          0.15766667       0.92433333       0.45033333
    64  H          0.10000000       0.59100000       0.61700000
    65  H          0.43333333       0.25766667       0.28366667
    66  H          0.76666667       0.92433333       0.95033333
    67  H          0.49100000       0.90000000       0.61700000
    68  H          0.40900000       0.50900000       0.61700000
    69  H          0.82433333       0.56666667       0.28366667
    70  H          0.74233333       0.17566667       0.28366667
    71  H          0.15766667       0.23333333       0.95033333
    72  H          0.07566667       0.84233333       0.95033333
    73  H          0.47000000       0.20200000       0.09600000
    74  H          0.80333333       0.86866667       0.76266667
    75  H          0.13666667       0.53533333       0.42933333
    76  H          0.79800000       0.26800000       0.09600000
    77  H          0.73200000       0.53000000       0.09600000
    78  H          0.13133333       0.93466667       0.76266667
    79  H          0.06533333       0.19666667       0.76266667
    80  H          0.46466667       0.60133333       0.42933333
    81  H          0.39866667       0.86333333       0.42933333
    82  H          0.79800000       0.53000000       0.59600000
    83  H          0.13133333       0.19666667       0.26266667
    84  H          0.46466667       0.86333333       0.92933333
    85  H          0.73200000       0.20200000       0.59600000
    86  H          0.47000000       0.26800000       0.59600000
    87  H          0.06533333       0.86866667       0.26266667
    88  H          0.80333333       0.93466667       0.26266667
    89  H          0.39866667       0.53533333       0.92933333
    90  H          0.13666667       0.60133333       0.92933333
    91  H          0.52700000       0.08700000       0.04000000
    92  H          0.86033333       0.75366667       0.70666667
    93  H          0.19366667       0.42033333       0.37333333
    94  H          0.91300000       0.44000000       0.04000000
    95  H          0.56000000       0.47300000       0.04000000
    96  H          0.24633333       0.10666667       0.70666667
    97  H          0.89333333       0.13966667       0.70666667
    98  H          0.57966667       0.77333333       0.37333333
    99  H          0.22666667       0.80633333       0.37333333
   100  H          0.91300000       0.47300000       0.54000000
   101  H          0.24633333       0.13966667       0.20666667
   102  H          0.57966667       0.80633333       0.87333333
   103  H          0.56000000       0.08700000       0.54000000
   104  H          0.52700000       0.44000000       0.54000000
   105  H          0.89333333       0.75366667       0.20666667
   106  H          0.86033333       0.10666667       0.20666667
   107  H          0.22666667       0.42033333       0.87333333
   108  H          0.19366667       0.77333333       0.87333333
   109  H          0.48200000       0.18900000       0.97900000
   110  H          0.81533333       0.85566667       0.64566667
   111  H          0.14866667       0.52233333       0.31233333
   112  H          0.81100000       0.29300000       0.97900000
   113  H          0.70700000       0.51800000       0.97900000
   114  H          0.14433333       0.95966667       0.64566667
   115  H          0.04033333       0.18466667       0.64566667
   116  H          0.47766667       0.62633333       0.31233333
   117  H          0.37366667       0.85133333       0.31233333
   118  H          0.81100000       0.51800000       0.47900000
   119  H          0.14433333       0.18466667       0.14566667
   120  H          0.47766667       0.85133333       0.81233333
   121  H          0.70700000       0.18900000       0.47900000
   122  H          0.48200000       0.29300000       0.47900000
   123  H          0.04033333       0.85566667       0.14566667
   124  H          0.81533333       0.95966667       0.14566667
   125  H          0.37366667       0.52233333       0.81233333
   126  H          0.14866667       0.62633333       0.81233333
   127  N          0.33200000       0.89930000       0.09090000
   128  N          0.66533333       0.56596667       0.75756667
   129  N         -0.00133333       0.23263333       0.42423333
   130  N          0.10070000       0.43270000       0.09090000
   131  N          0.56730000       0.66800000       0.09090000
   132  N          0.43403333       0.09936667       0.75756667
   133  N          0.90063333       0.33466667       0.75756667
   134  N          0.76736667       0.76603333       0.42423333
   135  N          0.23396667       0.00133333       0.42423333
   136  N          0.10070000       0.66800000       0.59090000
   137  N          0.43403333       0.33466667       0.25756667
   138  N          0.76736667       0.00133333       0.92423333
   139  N          0.56730000       0.89930000       0.59090000
   140  N          0.33200000       0.43270000       0.59090000
   141  N          0.90063333       0.56596667       0.25756667
   142  N          0.66533333       0.09936667       0.25756667
   143  N          0.23396667       0.23263333       0.92423333
   144  N         -0.00133333       0.76603333       0.92423333
   145  O          0.24170000      -0.00390000      -0.00140000
   146  O          0.57503333       0.66276667       0.66526667
   147  O          0.90836667       0.32943333       0.33193333
   148  O          0.00390000       0.24560000      -0.00140000
   149  O          0.75440000       0.75830000      -0.00140000
   150  O          0.33723333       0.91226667       0.66526667
   151  O          0.08773333       0.42496667       0.66526667
   152  O          0.67056667       0.57893333       0.33193333
   153  O          0.42106667       0.09163333       0.33193333
   154  O          0.00390000       0.75830000       0.49860000
   155  O          0.33723333       0.42496667       0.16526667
   156  O          0.67056667       0.09163333       0.83193333
   157  O          0.75440000      -0.00390000       0.49860000
   158  O          0.24170000       0.24560000       0.49860000
   159  O          0.08773333       0.66276667       0.16526667
   160  O          0.57503333       0.91226667       0.16526667
   161  O          0.42106667       0.32943333       0.83193333
   162  O          0.90836667       0.57893333       0.83193333
