data_ACEMID07
_symmetry_space_group_name_H-M    'P1'
_symmetry_Int_Tables_number       1
loop_
_symmetry_equiv_pos_site_id
_symmetry_equiv_pos_as_xyz
1 x,y,z
_cell_length_a                   5.0362
_cell_length_b                   18.2117
_cell_length_c                   6.945616
_cell_angle_alpha                90.0
_cell_angle_beta                 104.75512
_cell_angle_gamma                90.0
loop_
_atom_site_label
_atom_site_type_symbol
_atom_site_fract_x
_atom_site_fract_y
_atom_site_fract_z
     1  O          0.51371400       0.28957000       0.17321100
     2  O         -0.01371400       0.78957000       0.32678900
     3  O          0.48628600       0.71043000       0.82678900
     4  O          0.01371400       0.21043000       0.67321100
     5  N          0.74381700       0.29388000       0.93658700
     6  N          0.75618300       0.79388000       0.56341300
     7  N          0.25618300       0.70612000       0.06341300
     8  N          0.24381700       0.20612000       0.43658700
     9  C          0.63320000       0.25766000       0.06281400
    10  C          0.86680000       0.75766000       0.43718600
    11  C          0.36680000       0.74234000       0.93718600
    12  C          0.13320000       0.24234000       0.56281400
    13  C          0.65420000       0.17587000       0.06501600
    14  C          0.84580000       0.67587000       0.43498400
    15  C          0.34580000       0.82413000       0.93498400
    16  C          0.15420000       0.32413000       0.56501600
    17  H          0.73500000       0.34140000       0.93170000
    18  H          0.76500000       0.84140000       0.56830000
    19  H          0.26500000       0.65860000       0.06830000
    20  H          0.23500000       0.15860000       0.43170000
    21  H          0.56800000       0.15630000       0.15930000
    22  H          0.93200000       0.65630000       0.34070000
    23  H          0.43200000       0.84370000       0.84070000
    24  H          0.06800000       0.34370000       0.65930000
    25  H          0.84330000       0.16220000       0.09880000
    26  H          0.65670000       0.66220000       0.40120000
    27  H          0.15670000       0.83780000       0.90120000
    28  H          0.34330000       0.33780000       0.59880000
    29  H          0.56830000       0.15700000       0.93600000
    30  H          0.93170000       0.65700000       0.56400000
    31  H          0.43170000       0.84300000       0.06400000
    32  H          0.06830000       0.34300000       0.43600000
    33  H          0.82490000       0.26980000       0.85980000
    34  H          0.67510000       0.76980000       0.64020000
    35  H          0.17510000       0.73020000       0.14020000
    36  H          0.32490000       0.23020000       0.35980000
    37  O          0.78491200       0.94784000       0.66799000
    38  O          0.71508800       0.44784000       0.83201000
    39  O          0.21508800       0.05216000       0.33201000
    40  O          0.28491200       0.55216000       0.16799000
    41  N          0.75441600       0.06877000       0.61021100
    42  N          0.74558400       0.56877000       0.88978900
    43  N          0.24558400       0.93123000       0.38978900
    44  N          0.25441600       0.43123000       0.11021100
    45  C          0.88711500       0.01006000       0.69311400
    46  C          0.61288500       0.51006000       0.80688600
    47  C          0.11288500       0.98994000       0.30688600
    48  C          0.38711500       0.48994000       0.19311400
    49  C          0.17511600       0.02239000       0.81581400
    50  C          0.32488400       0.52239000       0.68418600
    51  C          0.82488400       0.97761000       0.18418600
    52  C          0.67511600       0.47761000       0.31581400
    53  H          0.25320000       0.97610000       0.86830000
    54  H          0.24680000       0.47610000       0.63170000
    55  H          0.74680000       0.02390000       0.13170000
    56  H          0.75320000       0.52390000       0.36830000
    57  H          0.17250000       0.05410000       0.92360000
    58  H          0.32750000       0.55410000       0.57640000
    59  H          0.82750000       0.94590000       0.07640000
    60  H          0.67250000       0.44590000       0.42360000
    61  H          0.28340000       0.04290000       0.73680000
    62  H          0.21660000       0.54290000       0.76320000
    63  H          0.71660000       0.95710000       0.26320000
    64  H          0.78340000       0.45710000       0.23680000
    65  H          0.83490000       0.11170000       0.63070000
    66  H          0.66510000       0.61170000       0.86930000
    67  H          0.16510000       0.88830000       0.36930000
    68  H          0.33490000       0.38830000       0.13070000
    69  H          0.58780000       0.06530000       0.53740000
    70  H          0.91220000       0.56530000       0.96260000
    71  H          0.41220000       0.93470000       0.46260000
    72  H          0.08780000       0.43470000       0.03740000
