data_ACEMID06
_symmetry_space_group_name_H-M    'P1'
_symmetry_Int_Tables_number       1
loop_
_symmetry_equiv_pos_site_id
_symmetry_equiv_pos_as_xyz
1 x,y,z
_cell_length_a                   19.0214
_cell_length_b                   7.508414
_cell_length_c                   9.403816
_cell_angle_alpha                90.0
_cell_angle_beta                 90.0
_cell_angle_gamma                90.0
loop_
_atom_site_label
_atom_site_type_symbol
_atom_site_fract_x
_atom_site_fract_y
_atom_site_fract_z
     1  O          0.55232600       0.14563140       0.29156110
     2  O          0.94767400       0.35436860       0.29156110
     3  O          0.44767400       0.64563140       0.20843890
     4  O          0.05232600       0.85436860       0.20843890
     5  O          0.44767400       0.85436860       0.70843890
     6  O          0.05232600       0.64563140       0.70843890
     7  O          0.55232600       0.35436860       0.79156110
     8  O          0.94767400       0.14563140       0.79156110
     9  N          0.57489800       0.17989190       0.52416150
    10  N          0.92510200       0.32010810       0.52416150
    11  N          0.42510200       0.67989190       0.97583850
    12  N          0.07489800       0.82010810       0.97583850
    13  N          0.42510200       0.82010810       0.47583850
    14  N          0.07489800       0.67989190       0.47583850
    15  N          0.57489800       0.32010810       0.02416150
    16  N          0.92510200       0.17989190       0.02416150
    17  C          0.53372800       0.19720190       0.41127150
    18  C          0.96627200       0.30279810       0.41127150
    19  C          0.46627200       0.69720190       0.08872850
    20  C          0.03372800       0.80279810       0.08872850
    21  C          0.46627200       0.80279810       0.58872850
    22  C          0.03372800       0.69720190       0.58872850
    23  C          0.53372800       0.30279810       0.91127150
    24  C          0.96627200       0.19720190       0.91127150
    25  C          0.46294800       0.28162000       0.43387170
    26  C          0.03705200       0.21838000       0.43387170
    27  C          0.53705200       0.78162000       0.06612830
    28  C          0.96294800       0.71838000       0.06612830
    29  C          0.53705200       0.71838000       0.56612830
    30  C          0.96294800       0.78162000       0.56612830
    31  C          0.46294800       0.21838000       0.93387170
    32  C          0.03705200       0.28162000       0.93387170
    33  H          0.45750000       0.38280000       0.36890000
    34  H          0.04250000       0.11720000       0.36890000
    35  H          0.54250000       0.88280000       0.13110000
    36  H          0.95750000       0.61720000       0.13110000
    37  H          0.54250000       0.61720000       0.63110000
    38  H          0.95750000       0.88280000       0.63110000
    39  H          0.45750000       0.11720000       0.86890000
    40  H          0.04250000       0.38280000       0.86890000
    41  H          0.45920000       0.32330000       0.53230000
    42  H          0.04080000       0.17670000       0.53230000
    43  H          0.54080000       0.82330000       0.96770000
    44  H          0.95920000       0.67670000       0.96770000
    45  H          0.54080000       0.67670000       0.46770000
    46  H          0.95920000       0.82330000       0.46770000
    47  H          0.45920000       0.17670000       0.03230000
    48  H          0.04080000       0.32330000       0.03230000
    49  H          0.42600000       0.19380000       0.41510000
    50  H          0.07400000       0.30620000       0.41510000
    51  H          0.57400000       0.69380000       0.08490000
    52  H          0.92600000       0.80620000       0.08490000
    53  H          0.57400000       0.80620000       0.58490000
    54  H          0.92600000       0.69380000       0.58490000
    55  H          0.42600000       0.30620000       0.91510000
    56  H          0.07400000       0.19380000       0.91510000
    57  H          0.61811000       0.13420000       0.51231900
    58  H          0.88189000       0.36580000       0.51231900
    59  H          0.38189000       0.63420000      -0.01231900
    60  H          0.11811000       0.86580000      -0.01231900
    61  H          0.38189000       0.86580000       0.48768100
    62  H          0.11811000       0.63420000       0.48768100
    63  H          0.61811000       0.36580000       0.01231900
    64  H          0.88189000       0.13420000       0.01231900
    65  H          0.56178000       0.22830000       0.60420000
    66  H          0.93822000       0.27170000       0.60420000
    67  H          0.43822000       0.72830000       0.89580000
    68  H          0.06178000       0.77170000       0.89580000
    69  H          0.43822000       0.77170000       0.39580000
    70  H          0.06178000       0.72830000       0.39580000
    71  H          0.56178000       0.27170000       0.10420000
    72  H          0.93822000       0.22830000       0.10420000
    73  O          0.71375600       0.02080160       0.48261110
    74  O          0.78624400       0.47919840       0.48261110
    75  O          0.28624400       0.52080160       0.01738890
    76  O          0.21375600       0.97919840       0.01738890
    77  O          0.28624400       0.97919840       0.51738890
    78  O          0.21375600       0.52080160       0.51738890
    79  O          0.71375600       0.47919840       0.98261110
    80  O          0.78624400       0.02080160       0.98261110
    81  N          0.70150800       0.03422180       0.24500140
    82  N          0.79849200       0.46577820       0.24500140
    83  N          0.29849200       0.53422180       0.25499860
    84  N          0.20150800       0.96577820       0.25499860
    85  N          0.29849200       0.96577820       0.75499860
    86  N          0.20150800       0.53422180       0.75499860
    87  N          0.70150800       0.46577820       0.74500140
    88  N          0.79849200       0.03422180       0.74500140
    89  C          0.73947800       0.00898190       0.36143160
    90  C          0.76052200       0.49101810       0.36143160
    91  C          0.26052200       0.50898190       0.13856840
    92  C          0.23947800      -0.00898190       0.13856840
    93  C          0.26052200      -0.00898190       0.63856840
    94  C          0.23947800       0.50898190       0.63856840
    95  C          0.73947800       0.49101810       0.86143160
    96  C          0.76052200       0.00898190       0.86143160
    97  C          0.81577900       0.96338000       0.34175170
    98  C          0.68422100       0.53662000       0.34175170
    99  C          0.18422100       0.46338000       0.15824830
   100  C          0.31577900       0.03662000       0.15824830
   101  C          0.18422100       0.03662000       0.65824830
   102  C          0.31577900       0.46338000       0.65824830
   103  C          0.81577900       0.53662000       0.84175170
   104  C          0.68422100       0.96338000       0.84175170
   105  H          0.84490000       0.06400000       0.37240000
   106  H          0.65510000       0.43600000       0.37240000
   107  H          0.15510000       0.56400000       0.12760000
   108  H          0.34490000       0.93600000       0.12760000
   109  H          0.15510000       0.93600000       0.62760000
   110  H          0.34490000       0.56400000       0.62760000
   111  H          0.84490000       0.43600000       0.87240000
   112  H          0.65510000       0.06400000       0.87240000
   113  H          0.82490000       0.93810000       0.24120000
   114  H          0.67510000       0.56190000       0.24120000
   115  H          0.17510000       0.43810000       0.25880000
   116  H          0.32490000       0.06190000       0.25880000
   117  H          0.17510000       0.06190000       0.75880000
   118  H          0.32490000       0.43810000       0.75880000
   119  H          0.82490000       0.56190000       0.74120000
   120  H          0.67510000       0.93810000       0.74120000
   121  H          0.82740000       0.85820000       0.39890000
   122  H          0.67260000       0.64180000       0.39890000
   123  H          0.17260000       0.35820000       0.10110000
   124  H          0.32740000       0.14180000       0.10110000
   125  H          0.17260000       0.14180000       0.60110000
   126  H          0.32740000       0.35820000       0.60110000
   127  H          0.82740000       0.64180000       0.89890000
   128  H          0.67260000       0.85820000       0.89890000
   129  H          0.65301000       0.05820000       0.25641800
   130  H          0.84699000       0.44180000       0.25641800
   131  H          0.34699000       0.55820000       0.24358200
   132  H          0.15301000       0.94180000       0.24358200
   133  H          0.34699000       0.94180000       0.74358200
   134  H          0.15301000       0.55820000       0.74358200
   135  H          0.65301000       0.44180000       0.75641800
   136  H          0.84699000       0.05820000       0.75641800
   137  H          0.72348000       0.02420000       0.16521800
   138  H          0.77652000       0.47580000       0.16521800
   139  H          0.27652000       0.52420000       0.33478200
   140  H          0.22348000       0.97580000       0.33478200
   141  H          0.27652000       0.97580000       0.83478200
   142  H          0.22348000       0.52420000       0.83478200
   143  H          0.72348000       0.47580000       0.66521800
   144  H          0.77652000       0.02420000       0.66521800
