data_ACRDIN06
_symmetry_space_group_name_H-M    'P1'
_symmetry_Int_Tables_number       1
loop_
_symmetry_equiv_pos_site_id
_symmetry_equiv_pos_as_xyz
1 x,y,z
_cell_length_a                   6.05691
_cell_length_b                   22.8134
_cell_length_c                   13.2042
_cell_angle_alpha                90.0
_cell_angle_beta                 95.9384
_cell_angle_gamma                90.0
loop_
_atom_site_label
_atom_site_type_symbol
_atom_site_fract_x
_atom_site_fract_y
_atom_site_fract_z
     1  N          0.16962000       0.30681600       0.16081110
     2  N          0.33038000       0.80681600       0.33918890
     3  N          0.83038000       0.69318400       0.83918890
     4  N          0.66962000       0.19318400       0.66081110
     5  C          0.69563000       0.39168800       0.16900140
     6  C          0.80437000       0.89168800       0.33099860
     7  C          0.30437000       0.60831200       0.83099860
     8  C          0.19563000       0.10831200       0.66900140
     9  H          0.83610000       0.39530000       0.20780000
    10  H          0.66390000       0.89530000       0.29220000
    11  H          0.16390000       0.60470000       0.79220000
    12  H          0.33610000       0.10470000       0.70780000
    13  C          0.64773000       0.42552800       0.08513150
    14  C          0.85227000       0.92552800       0.41486850
    15  C          0.35227000       0.57447200       0.91486850
    16  C          0.14773000       0.07447200       0.58513150
    17  H          0.75450000       0.45270000       0.06580000
    18  H          0.74550000       0.95270000       0.43420000
    19  H          0.24550000       0.54730000       0.93420000
    20  H          0.25450000       0.04730000       0.56580000
    21  C          0.43983000       0.42059800       0.02624150
    22  C          0.06017000       0.92059800       0.47375850
    23  C          0.56017000       0.57940200       0.97375850
    24  C          0.93983000       0.07940200       0.52624150
    25  H          0.40810000       0.44460000       0.96780000
    26  H          0.09190000       0.94460000       0.53220000
    27  H          0.59190000       0.55540000       0.03220000
    28  H          0.90810000       0.05540000       0.46780000
    29  C          0.28503000       0.38195800       0.05214140
    30  C          0.21497000       0.88195800       0.44785860
    31  C          0.71497000       0.61804200       0.94785860
    32  C          0.78503000       0.11804200       0.55214140
    33  H          0.14590000       0.37950000       0.01190000
    34  H          0.35410000       0.87950000       0.48810000
    35  H          0.85410000       0.62050000       0.98810000
    36  H          0.64590000       0.12050000       0.51190000
    37  C          0.04223000       0.23460800       0.27125150
    38  C          0.45777000       0.73460800       0.22874850
    39  C          0.95777000       0.76539200       0.72874850
    40  C          0.54223000       0.26539200       0.77125150
    41  H          0.90950000       0.23040000       0.22680000
    42  H          0.59050000       0.73040000       0.27320000
    43  H          0.09050000       0.76960000       0.77320000
    44  H          0.40950000       0.26960000       0.72680000
    45  C          0.07034000       0.20298900       0.35889170
    46  C          0.42966000       0.70298900       0.14110830
    47  C          0.92966000       0.79701100       0.64110830
    48  C          0.57034000       0.29701100       0.85889170
    49  H          0.95560000       0.17740000       0.37540000
    50  H          0.54440000       0.67740000       0.12460000
    51  H          0.04440000       0.82260000       0.62460000
    52  H          0.45560000       0.32260000       0.87540000
    53  C          0.26764000       0.20753800       0.42606160
    54  C          0.23236000       0.70753800       0.07393840
    55  C          0.73236000       0.79246200       0.57393840
    56  C          0.76764000       0.29246200       0.92606160
    57  H          0.28300000       0.18550000       0.48740000
    58  H          0.21700000       0.68550000       0.01260000
    59  H          0.71700000       0.81450000       0.51260000
    60  H          0.78300000       0.31450000       0.98740000
    61  C          0.43393000       0.24298800       0.40337140
    62  C          0.06607000       0.74298800       0.09662860
    63  C          0.56607000       0.75701200       0.59662860
    64  C          0.93393000       0.25701200       0.90337140
    65  H          0.56670000       0.24490000       0.44830000
    66  H          0.93330000       0.74490000       0.05170000
    67  H          0.43330000       0.75510000       0.55170000
    68  H          0.06670000       0.25510000       0.94830000
    69  C          0.57463000       0.31622800       0.28683140
    70  C          0.92537000       0.81622800       0.21316860
    71  C          0.42537000       0.68377200       0.71316860
    72  C          0.07463000       0.18377200       0.78683140
    73  H          0.71150000       0.31920000       0.32870000
    74  H          0.78850000       0.81920000       0.17130000
    75  H          0.28850000       0.68080000       0.67130000
    76  H          0.21150000       0.18080000       0.82870000
    77  C          0.53713000       0.35068700       0.19963130
    78  C          0.96287000       0.85068700       0.30036870
    79  C          0.46287000       0.64931300       0.80036870
    80  C          0.03713000       0.14931300       0.69963130
    81  C          0.32823000       0.34494800       0.13893130
    82  C          0.17177000       0.84494800       0.36106870
    83  C          0.67177000       0.65505200       0.86106870
    84  C          0.82823000       0.15505200       0.63893130
    85  C          0.21023000       0.27387800       0.24558140
    86  C          0.28977000       0.77387800       0.25441860
    87  C          0.78977000       0.72612200       0.75441860
    88  C          0.71023000       0.22612200       0.74558140
    89  C          0.41303000       0.27771700       0.31256130
    90  C          0.08697000       0.77771700       0.18743870
    91  C          0.58697000       0.72228300       0.68743870
    92  C          0.91303000       0.22228300       0.81256130
    93  N          0.25222000       0.01039600       0.89474110
    94  N          0.24778000       0.51039600       0.60525890
    95  N          0.74778000       0.98960400       0.10525890
    96  N          0.75222000       0.48960400       0.39474110
    97  C          0.56693000       0.14402800       0.98421140
    98  C          0.93307000       0.64402800       0.51578860
    99  C          0.43307000       0.85597200       0.01578860
   100  C          0.06693000       0.35597200       0.48421140
   101  H          0.70030000       0.16450000       0.97560000
   102  H          0.79970000       0.66450000       0.52440000
   103  H          0.29970000       0.83550000       0.02440000
   104  H          0.20030000       0.33550000       0.47560000
   105  C          0.42673000       0.16564900       0.04837150
   106  C          0.07327000       0.66564900       0.45162850
   107  C          0.57327000       0.83435100       0.95162850
   108  C          0.92673000       0.33435100       0.54837150
   109  H          0.46090000       0.20140000       0.08330000
   110  H          0.03910000       0.70140000       0.41670000
   111  H          0.53910000       0.79860000       0.91670000
   112  H          0.96090000       0.29860000       0.58330000
   113  C          0.22813000       0.13498800       0.06378140
   114  C          0.27187000       0.63498800       0.43621860
   115  C          0.77187000       0.86501200       0.93621860
   116  C          0.72813000       0.36501200       0.56378140
   117  H          0.13180000       0.15040000       0.10960000
   118  H          0.36820000       0.65040000       0.39040000
   119  H          0.86820000       0.84960000       0.89040000
   120  H          0.63180000       0.34960000       0.60960000
   121  C          0.17433000       0.08398800       0.01401140
   122  C          0.32567000       0.58398800       0.48598860
   123  C          0.82567000       0.91601200       0.98598860
   124  C          0.67433000       0.41601200       0.51401140
   125  H          0.04180000       0.06390000       0.02580000
   126  H          0.45820000       0.56390000       0.47420000
   127  H          0.95820000       0.93610000       0.97420000
   128  H          0.54180000       0.43610000       0.52580000
   129  C          0.32373000       0.93566200       0.77610140
   130  C          0.17627000       0.43566200       0.72389860
   131  C          0.67627000       0.06433800       0.22389860
   132  C          0.82373000       0.56433800       0.27610140
   133  H          0.18810000       0.91710000       0.78740000
   134  H          0.31190000       0.41710000       0.71260000
   135  H          0.81190000       0.08290000       0.21260000
   136  H          0.68810000       0.58290000       0.28740000
   137  C          0.45463000       0.91170100       0.71030140
   138  C          0.04537000       0.41170100       0.78969860
   139  C          0.54537000       0.08829900       0.28969860
   140  C          0.95463000       0.58829900       0.21030140
   141  H          0.41070000       0.87600000       0.67700000
   142  H          0.08930000       0.37600000       0.82300000
   143  H          0.58930000       0.12400000       0.32300000
   144  H          0.91070000       0.62400000       0.17700000
   145  C          0.65623000       0.93876100       0.69000140
   146  C          0.84377000       0.43876100       0.80999860
   147  C          0.34377000       0.06123900       0.30999860
   148  C          0.15623000       0.56123900       0.19000140
   149  H          0.74470000       0.92150000       0.64260000
   150  H          0.75530000       0.42150000       0.85740000
   151  H          0.25530000       0.07850000       0.35740000
   152  H          0.24470000       0.57850000       0.14260000
   153  C          0.72293000       0.98927200       0.73820140
   154  C          0.77707000       0.48927200       0.76179860
   155  C          0.27707000       0.01072800       0.26179860
   156  C          0.22293000       0.51072800       0.23820140
   157  H          0.85800000       0.00720000       0.72410000
   158  H          0.64200000       0.50720000       0.77590000
   159  H          0.14200000       0.99280000       0.27590000
   160  H          0.35800000       0.49280000       0.22410000
   161  C          0.65313000       0.06696800       0.86184130
   162  C          0.84687000       0.56696800       0.63815870
   163  C          0.34687000       0.93303200       0.13815870
   164  C          0.15313000       0.43303200       0.36184130
   165  H          0.78880000       0.08570000       0.85130000
   166  H          0.71120000       0.58570000       0.64870000
   167  H          0.21120000       0.91430000       0.14870000
   168  H          0.28880000       0.41430000       0.35130000
   169  C          0.51753000       0.09117800       0.92948130
   170  C         -0.01753000       0.59117800       0.57051870
   171  C          0.48247000       0.90882200       0.07051870
   172  C          0.01753000       0.40882200       0.42948130
   173  C          0.31523000       0.06037800       0.94430130
   174  C          0.18477000       0.56037800       0.55569870
   175  C          0.68477000       0.93962200       0.05569870
   176  C          0.81523000       0.43962200       0.44430130
   177  C          0.38703000       0.98856200       0.82870130
   178  C          0.11297000       0.48856200       0.67129870
   179  C          0.61297000       0.01143800       0.17129870
   180  C          0.88703000       0.51143800       0.32870130
   181  C          0.59323000       0.01580800       0.80961130
   182  C          0.90677000       0.51580800       0.69038870
   183  C          0.40677000       0.98419200       0.19038870
   184  C          0.09323000       0.48419200       0.30961130
