data_ACRDIN08
_symmetry_space_group_name_H-M    'P1'
_symmetry_Int_Tables_number       1
loop_
_symmetry_equiv_pos_site_id
_symmetry_equiv_pos_as_xyz
1 x,y,z
_cell_length_a                   6.17885
_cell_length_b                   15.718516
_cell_length_c                   29.3123
_cell_angle_alpha                90.0
_cell_angle_beta                 90.0
_cell_angle_gamma                90.0
loop_
_atom_site_label
_atom_site_type_symbol
_atom_site_fract_x
_atom_site_fract_y
_atom_site_fract_z
     1  C          0.94724000       0.91769170       0.16410900
     2  C          0.55276000       0.08230830       0.66410900
     3  C          0.44724000       0.58230830       0.83589100
     4  C          0.05276000       0.41769170       0.33589100
     5  C          0.79464000       0.86011170       0.17835900
     6  C          0.70536000       0.13988830       0.67835900
     7  C          0.29464000       0.63988830       0.82164100
     8  C          0.20536000       0.36011170       0.32164100
     9  H          0.66360000       0.85630000       0.16280000
    10  H          0.83640000       0.14370000       0.66280000
    11  H          0.16360000       0.64370000       0.83720000
    12  H          0.33640000       0.35630000       0.33720000
    13  C          0.14584000       0.92047160       0.18846900
    14  C          0.35416000       0.07952840       0.68846900
    15  C          0.64584000       0.57952840       0.81153100
    16  C          0.85416000       0.42047160       0.31153100
    17  N          0.18853000       0.86949140       0.22421700
    18  N          0.31147000       0.13050860       0.72421700
    19  N          0.68853000       0.63050860       0.77578300
    20  N          0.81147000       0.36949140       0.27578300
    21  C          0.30474000       0.97935170       0.17455900
    22  C          0.19526000       0.02064830       0.67455900
    23  C          0.80474000       0.52064830       0.82544100
    24  C          0.69526000       0.47935170       0.32544100
    25  H          0.43500000       0.98240000       0.19040000
    26  H          0.06500000       0.01760000       0.69040000
    27  H          0.93500000       0.51760000       0.80960000
    28  H          0.56500000       0.48240000       0.30960000
    29  C          0.03654000       0.81437170       0.23723900
    30  C          0.46346000       0.18562830       0.73723900
    31  C          0.53654000       0.68562830       0.76276100
    32  C          0.96346000       0.31437170       0.26276100
    33  C          0.83214000       0.80757170       0.21536900
    34  C          0.66786000       0.19242830       0.71536900
    35  C          0.33214000       0.69242830       0.78463100
    36  C          0.16786000       0.30757170       0.28463100
    37  C          0.07754000       0.76000190       0.27460100
    38  C          0.42246000       0.23999810       0.77460100
    39  C          0.57754000       0.73999810       0.72539900
    40  C          0.92246000       0.26000190       0.22539900
    41  H          0.21060000       0.76300000       0.28930000
    42  H          0.28940000       0.23700000       0.78930000
    43  H          0.71060000       0.73700000       0.71070000
    44  H          0.78940000       0.26300000       0.21070000
    45  C          0.91804000       0.97431190       0.12677900
    46  C          0.58196000       0.02568810       0.62677900
    47  C          0.41804000       0.52568810       0.87322100
    48  C          0.08196000       0.47431190       0.37322100
    49  H          0.78860000       0.97330000       0.11060000
    50  H          0.71140000       0.02670000       0.61060000
    51  H          0.28860000       0.52670000       0.88940000
    52  H          0.21140000       0.47330000       0.38940000
    53  C          0.67904000       0.74759180       0.23228100
    54  C          0.82096000       0.25240820       0.73228100
    55  C          0.17904000       0.75240820       0.76771900
    56  C          0.32096000       0.24759180       0.26771900
    57  H          0.54460000       0.74260000       0.21820000
    58  H          0.95540000       0.25740000       0.71820000
    59  H          0.04460000       0.75740000       0.78180000
    60  H          0.45540000       0.24260000       0.28180000
    61  C          0.72675000       0.69822000       0.26823120
    62  C          0.77325000       0.30178000       0.76823120
    63  C          0.22675000       0.80178000       0.73176880
    64  C          0.27325000       0.19822000       0.23176880
    65  H          0.62450000       0.65980000       0.27920000
    66  H          0.87550000       0.34020000       0.77920000
    67  H          0.12450000       0.84020000       0.72080000
    68  H          0.37550000       0.15980000       0.22080000
    69  C          0.92905000       0.70412000       0.28934110
    70  C          0.57095000       0.29588000       0.78934110
    71  C          0.42905000       0.79588000       0.71065890
    72  C          0.07095000       0.20412000       0.21065890
    73  H          0.96110000       0.66890000       0.31390000
    74  H          0.53890000       0.33110000       0.81390000
    75  H          0.46110000       0.83110000       0.68610000
    76  H          0.03890000       0.16890000       0.18610000
    77  C          0.07415000       0.02922190       0.11449100
    78  C          0.42585000       0.97077810       0.61449100
    79  C          0.57415000       0.47077810       0.88550900
    80  C          0.92585000       0.52922190       0.38550900
    81  H          0.05230000       0.06580000       0.09000000
    82  H          0.44770000       0.93420000       0.59000000
    83  H          0.55230000       0.43420000       0.91000000
    84  H          0.94770000       0.56580000       0.41000000
    85  C          0.27104000       0.03130180       0.13875100
    86  C          0.22896000       0.96869820       0.63875100
    87  C          0.77104000       0.46869820       0.86124900
    88  C          0.72896000       0.53130180       0.36124900
    89  H          0.37900000       0.06910000       0.12990000
    90  H          0.12100000       0.93090000       0.62990000
    91  H          0.87900000       0.43090000       0.87010000
    92  H          0.62100000       0.56910000       0.37010000
    93  N          0.29413000       0.63017140       0.45210700
    94  N          0.20587000       0.36982860       0.95210700
    95  N          0.79413000       0.86982860       0.54789300
    96  N          0.70587000       0.13017140       0.04789300
    97  C          0.42924000       0.68773180       0.43370100
    98  C          0.07076000       0.31226820       0.93370100
    99  C          0.92924000       0.81226820       0.56629900
   100  C          0.57076000       0.18773180       0.06629900
   101  C          0.36374000       0.58467170       0.48788900
   102  C          0.13626000       0.41532830       0.98788900
   103  C          0.86374000       0.91532830       0.51211100
   104  C          0.63626000       0.08467170       0.01211100
   105  C          0.57274000       0.59444180       0.50714100
   106  C          0.92726000       0.40555820       0.00714100
   107  C          0.07274000       0.90555820       0.49285900
   108  C          0.42726000       0.09444180       0.99285900
   109  C          0.64184000       0.70082180       0.45059100
   110  C          0.85816000       0.29917820       0.95059100
   111  C          0.14184000       0.79917820       0.54940900
   112  C          0.35816000       0.20082180       0.04940900
   113  C          0.70724000       0.65317190       0.48739100
   114  C          0.79276000       0.34682810       0.98739100
   115  C          0.20724000       0.84682810       0.51260900
   116  C          0.29276000       0.15317190       0.01260900
   117  H          0.84560000       0.66090000       0.49910000
   118  H          0.65440000       0.33910000      -0.00090000
   119  H          0.34560000       0.83910000       0.50090000
   120  H          0.15440000       0.16090000       0.00090000
   121  C          0.22164000       0.52477180       0.50778900
   122  C          0.27836000       0.47522820       0.00778900
   123  C          0.72164000       0.97522820       0.49221100
   124  C          0.77836000       0.02477180       0.99221100
   125  H          0.08510000       0.51640000       0.49520000
   126  H          0.41490000       0.48360000       0.99520000
   127  H          0.58510000       0.98360000       0.50480000
   128  H          0.91490000       0.01640000       0.00480000
   129  C          0.35855000       0.73582190       0.39598100
   130  C          0.14145000       0.26417810       0.89598100
   131  C          0.85855000       0.76417810       0.60401900
   132  C          0.64145000       0.23582190       0.10401900
   133  H          0.22030000       0.72710000       0.38430000
   134  H          0.27970000       0.27290000       0.88430000
   135  H          0.72030000       0.77290000       0.61570000
   136  H          0.77970000       0.22710000       0.11570000
   137  C          0.28165000       0.47970180       0.54475100
   138  C          0.21835000       0.52029820       0.04475100
   139  C          0.78165000       0.02029820       0.45524900
   140  C          0.71835000       0.97970180       0.95524900
   141  H          0.18490000       0.44130000       0.55770000
   142  H          0.31510000       0.55870000       0.05770000
   143  H          0.68490000       0.05870000       0.44230000
   144  H          0.81510000       0.94130000       0.94230000
   145  C          0.62874000       0.54442000       0.54605100
   146  C          0.87126000       0.45558000       0.04605100
   147  C          0.12874000       0.95558000       0.45394900
   148  C          0.37126000       0.04442000       0.95394900
   149  H          0.76550000       0.55000000       0.55900000
   150  H          0.73450000       0.45000000       0.05900000
   151  H          0.26550000       0.95000000       0.44100000
   152  H          0.23450000       0.05000000       0.94100000
   153  C          0.69946000       0.80702000       0.39296130
   154  C          0.80054000       0.19298000       0.89296130
   155  C          0.19946000       0.69298000       0.60703870
   156  C          0.30054000       0.30702000       0.10703870
   157  H          0.78900000       0.84680000       0.37890000
   158  H          0.71100000       0.15320000       0.87890000
   159  H          0.28900000       0.65320000       0.62110000
   160  H          0.21100000       0.34680000       0.12110000
   161  C          0.48905000       0.79452000       0.37649100
   162  C          0.01095000       0.20548000       0.87649100
   163  C         -0.01095000       0.70548000       0.62350900
   164  C          0.51095000       0.29452000       0.12350900
   165  H          0.43890000       0.82660000       0.35200000
   166  H          0.06110000       0.17340000       0.85200000
   167  H          0.93890000       0.67340000       0.64800000
   168  H          0.56110000       0.32660000       0.14800000
   169  C          0.48735000       0.48992000       0.56405110
   170  C          0.01265000       0.51008000       0.06405110
   171  C         -0.01265000       0.01008000       0.43594890
   172  C          0.51265000       0.98992000       0.93594890
   173  H          0.52560000       0.45830000       0.58960000
   174  H          0.97440000       0.54170000       0.08960000
   175  H          0.02560000       0.04170000       0.41040000
   176  H          0.47440000       0.95830000       0.91040000
   177  C          0.77275000       0.76262000       0.42857120
   178  C          0.72725000       0.23738000       0.92857120
   179  C          0.27275000       0.73738000       0.57142880
   180  C          0.22725000       0.26262000       0.07142880
   181  H          0.91230000       0.77240000       0.43920000
   182  H          0.58770000       0.22760000       0.93920000
   183  H          0.41230000       0.72760000       0.56080000
   184  H          0.08770000       0.27240000       0.06080000
   185  C          0.37224000       0.73806160       0.10451900
   186  C          0.12776000       0.26193840       0.60451900
   187  C          0.87224000       0.76193840       0.89548100
   188  C          0.62776000       0.23806160       0.39548100
   189  C          0.57554000       0.69704180       0.09839900
   190  C          0.92446000       0.30295820       0.59839900
   191  C          0.07554000       0.80295820       0.90160100
   192  C          0.42446000       0.19704180       0.40160100
   193  N          0.63633000       0.62753140       0.12187800
   194  N          0.86367000       0.37246860       0.62187800
   195  N          0.13633000       0.87246860       0.87812200
   196  N          0.36367000       0.12753140       0.37812200
   197  C          0.28714000       0.62967170       0.15919800
   198  C          0.21286000       0.37032830       0.65919800
   199  C          0.78714000       0.87032830       0.84080200
   200  C          0.71286000       0.12967170       0.34080200
   201  C          0.49444000       0.59402170       0.15143900
   202  C          0.00556000       0.40597830       0.65143900
   203  C         -0.00556000       0.90597830       0.84856100
   204  C          0.50556000       0.09402170       0.34856100
   205  C          0.23124000       0.70236170       0.13551900
   206  C          0.26876000       0.29763830       0.63551900
   207  C          0.73124000       0.79763830       0.86448100
   208  C          0.76876000       0.20236170       0.36448100
   209  H          0.09710000       0.72750000       0.14050000
   210  H          0.40290000       0.27250000       0.64050000
   211  H          0.59710000       0.77250000       0.85950000
   212  H          0.90290000       0.22750000       0.35950000
   213  C          0.41955000       0.48389180       0.20597100
   214  C          0.08045000       0.51610820       0.70597100
   215  C          0.91955000       0.01610820       0.79402900
   216  C          0.58045000       0.98389180       0.29402900
   217  H          0.46250000       0.43570000       0.22200000
   218  H          0.03750000       0.56430000       0.72200000
   219  H          0.96250000       0.06430000       0.77800000
   220  H          0.53750000       0.93570000       0.27800000
   221  C          0.55554000       0.52041190       0.17598100
   222  C          0.94446000       0.47958810       0.67598100
   223  C          0.05554000       0.97958810       0.82401900
   224  C          0.44446000       0.02041190       0.32401900
   225  H          0.69180000       0.49690000       0.17130000
   226  H          0.80820000       0.50310000       0.67130000
   227  H          0.19180000       0.00310000       0.82870000
   228  H          0.30820000      -0.00310000       0.32870000
   229  C          0.72024000       0.73186180       0.06592100
   230  C          0.77976000       0.26813820       0.56592100
   231  C          0.22024000       0.76813820       0.93407900
   232  C          0.27976000       0.23186180       0.43407900
   233  H          0.85300000       0.70550000       0.06100000
   234  H          0.64700000       0.29450000       0.56100000
   235  H          0.35300000       0.79450000       0.93900000
   236  H          0.14700000       0.20550000       0.43900000
   237  C          0.32774000       0.81218180       0.07893100
   238  C          0.17226000       0.18781820       0.57893100
   239  C          0.82774000       0.68781820       0.92106900
   240  C          0.67226000       0.31218180       0.42106900
   241  H          0.19620000       0.83990000       0.08300000
   242  H          0.30380000       0.16010000       0.58300000
   243  H          0.69620000       0.66010000       0.91700000
   244  H          0.80380000       0.33990000       0.41700000
   245  C          0.14914000       0.58897190       0.19093100
   246  C          0.35086000       0.41102810       0.69093100
   247  C          0.64914000       0.91102810       0.80906900
   248  C          0.85086000       0.08897190       0.30906900
   249  H          0.01230000       0.61130000       0.19650000
   250  H          0.48770000       0.38870000       0.69650000
   251  H          0.51230000       0.88870000       0.80350000
   252  H         -0.01230000       0.11130000       0.30350000
   253  C          0.47135000       0.84360190       0.04881100
   254  C          0.02865000       0.15639810       0.54881100
   255  C          0.97135000       0.65639810       0.95118900
   256  C          0.52865000       0.34360190       0.45118900
   257  H          0.43900000       0.89270000       0.03250000
   258  H          0.06100000       0.10730000       0.53250000
   259  H          0.93900000       0.60730000       0.96750000
   260  H          0.56100000       0.39270000       0.46750000
   261  C          0.21355000       0.51822000       0.21316100
   262  C          0.28645000       0.48178000       0.71316100
   263  C          0.71355000       0.98178000       0.78683900
   264  C          0.78645000       0.01822000       0.28683900
   265  H          0.11970000       0.49190000       0.23360000
   266  H          0.38030000       0.50810000       0.73360000
   267  H          0.61970000       0.00810000       0.76640000
   268  H          0.88030000      -0.00810000       0.26640000
   269  C          0.67015000       0.80202000       0.04207110
   270  C          0.82985000       0.19798000       0.54207110
   271  C          0.17015000       0.69798000       0.95792890
   272  C          0.32985000       0.30202000       0.45792890
   273  H          0.76800000       0.82340000       0.02080000
   274  H          0.73200000       0.17660000       0.52080000
   275  H          0.26800000       0.67660000       0.97920000
   276  H          0.23200000       0.32340000       0.47920000
