data_ACRDIN07
_symmetry_space_group_name_H-M    'P1'
_symmetry_Int_Tables_number       1
loop_
_symmetry_equiv_pos_site_id
_symmetry_equiv_pos_as_xyz
1 x,y,z
_cell_length_a                   6.06932
_cell_length_b                   18.81817
_cell_length_c                   16.28305
_cell_angle_alpha                90.0
_cell_angle_beta                 95.1553
_cell_angle_gamma                90.0
loop_
_atom_site_label
_atom_site_type_symbol
_atom_site_fract_x
_atom_site_fract_y
_atom_site_fract_z
     1  N          0.24410170       0.42335700       0.96126700
     2  N          0.75589830       0.92335700       0.53873300
     3  N          0.75589830       0.57664300       0.03873300
     4  N          0.24410170       0.07664300       0.46126700
     5  C          0.92638000       0.47045800       0.87617800
     6  C          0.07362000       0.97045800       0.62382200
     7  C          0.07362000       0.52954200       0.12382200
     8  C          0.92638000       0.02954200       0.37617800
     9  C          0.90178000       0.35571800       0.93973800
    10  C          0.09822000       0.85571800       0.56026200
    11  C          0.09822000       0.64428200       0.06026200
    12  C          0.90178000       0.14428200       0.43973800
    13  C          0.14852000       0.47500800       0.91352800
    14  C          0.85148000       0.97500800       0.58647200
    15  C          0.85148000       0.52499200       0.08647200
    16  C          0.14852000       0.02499200       0.41352800
    17  C          0.80688000       0.40982900       0.89117800
    18  C          0.19312000       0.90982900       0.60882200
    19  C          0.19312000       0.59017100       0.10882200
    20  C          0.80688000       0.09017100       0.39117800
    21  H          0.66150000       0.40550000       0.86840000
    22  H          0.33850000       0.90550000       0.63160000
    23  H          0.33850000       0.59450000       0.13160000
    24  H          0.66150000       0.09450000       0.36840000
    25  C          0.12422000       0.36513800       0.97433800
    26  C          0.87578000       0.86513800       0.52566200
    27  C          0.87578000       0.63486200       0.02566200
    28  C          0.12422000       0.13486200       0.47433800
    29  C          0.27313000       0.53714800       0.90028900
    30  C          0.72687000       0.03714800       0.59971100
    31  C          0.72687000       0.46285200       0.09971100
    32  C          0.27313000       0.96285200       0.40028900
    33  H          0.41680000       0.54130000       0.92500000
    34  H          0.58320000       0.04130000       0.57500000
    35  H          0.58320000       0.45870000       0.07500000
    36  H          0.41680000       0.95870000       0.42500000
    37  C          0.22203000       0.31055900       0.02570900
    38  C          0.77797000       0.81055900       0.47429100
    39  C          0.77797000       0.68944100       0.97429100
    40  C          0.22203000       0.18944100       0.52570900
    41  H          0.36700000       0.31570000       0.04870000
    42  H          0.63300000       0.81570000       0.45130000
    43  H          0.63300000       0.68430000       0.95130000
    44  H          0.36700000       0.18430000       0.54870000
    45  C          0.84237000       0.52780900       0.82617900
    46  C          0.15763000       0.02780900       0.67382100
    47  C          0.15763000       0.47219100       0.17382100
    48  C          0.84237000       0.97219100       0.32617900
    49  H          0.69850000       0.52560000       0.80130000
    50  H          0.30150000       0.02560000       0.69870000
    51  H          0.30150000       0.47440000       0.19870000
    52  H          0.69850000       0.97440000       0.30130000
    53  C          0.78957000       0.29209100       0.95779100
    54  C          0.21043000       0.79209100       0.54220900
    55  C          0.21043000       0.70790900       0.04220900
    56  C          0.78957000       0.20790900       0.45779100
    57  H          0.64520000       0.28500000       0.93510000
    58  H          0.35480000       0.78500000       0.56490000
    59  H          0.35480000       0.71500000       0.06490000
    60  H          0.64520000       0.21500000       0.43510000
    61  C          0.96797000       0.58554100       0.81405100
    62  C          0.03203000       0.08554100       0.68594900
    63  C          0.03203000       0.41445900       0.18594900
    64  C          0.96797000       0.91445900       0.31405100
    65  H          0.91090000       0.62230000       0.78040000
    66  H          0.08910000       0.12230000       0.71960000
    67  H          0.08910000       0.37770000       0.21960000
    68  H          0.91090000       0.87770000       0.28040000
    69  C          0.18533000       0.59016900       0.85228100
    70  C          0.81467000       0.09016900       0.64771900
    71  C          0.81467000       0.40983100       0.14771900
    72  C          0.18533000       0.90983100       0.35228100
    73  H          0.26950000       0.63050000       0.84420000
    74  H          0.73050000       0.13050000       0.65580000
    75  H          0.73050000       0.36950000       0.15580000
    76  H          0.26950000       0.86950000       0.34420000
    77  C          0.10793000       0.25134900       0.04170100
    78  C          0.89207000       0.75134900       0.45829900
    79  C          0.89207000       0.74865100       0.95829900
    80  C          0.10793000       0.24865100       0.54170100
    81  H          0.17480000       0.21650000       0.07590000
    82  H          0.82520000       0.71650000       0.42410000
    83  H          0.82520000       0.78350000       0.92410000
    84  H          0.17480000       0.28350000       0.57590000
    85  C          0.88867000       0.24177100       0.00726110
    86  C          0.11133000       0.74177100       0.49273890
    87  C          0.11133000       0.75822900      -0.00726110
    88  C          0.88867000       0.25822900       0.50726110
    89  H          0.81200000       0.20070000       0.01860000
    90  H          0.18800000       0.70070000       0.48140000
    91  H          0.18800000       0.79930000       0.98140000
    92  H          0.81200000       0.29930000       0.51860000
    93  N          0.69943810       0.10378700       0.14105700
    94  N          0.30056190       0.60378700       0.35894300
    95  N          0.30056190       0.89621300       0.85894300
    96  N          0.69943810       0.39621300       0.64105700
    97  C          0.64218000       0.03636800       0.12313800
    98  C          0.35782000       0.53636800       0.37686200
    99  C          0.35782000       0.96363200       0.87686200
   100  C          0.64218000       0.46363200       0.62313800
   101  C          0.56288000       0.14231800       0.18451800
   102  C          0.43712000       0.64231800       0.31548200
   103  C          0.43712000       0.85768200       0.81548200
   104  C          0.56288000       0.35768200       0.68451800
   105  C          0.36148000       0.11485800       0.21096800
   106  C          0.63852000       0.61485800       0.28903200
   107  C          0.63852000       0.88514200       0.78903200
   108  C          0.36148000       0.38514200       0.71096800
   109  C          0.30698000       0.04513900       0.19094900
   110  C          0.69302000       0.54513900       0.30905100
   111  C          0.69302000       0.95486100       0.80905100
   112  C          0.30698000       0.45486100       0.69094900
   113  H          0.17670000       0.02570000       0.20700000
   114  H          0.82330000       0.52570000       0.29300000
   115  H          0.82330000       0.97430000       0.79300000
   116  H          0.17670000       0.47430000       0.70700000
   117  C          0.44528000       0.00412800       0.14716900
   118  C          0.55472000       0.50412800       0.35283100
   119  C          0.55472000      -0.00412800       0.85283100
   120  C          0.44528000       0.49587200       0.64716900
   121  C          0.62197000       0.21341900       0.20567100
   122  C          0.37803000       0.71341900       0.29432900
   123  C          0.37803000       0.78658100       0.79432900
   124  C          0.62197000       0.28658100       0.70567100
   125  H          0.75180000       0.23250000       0.18870000
   126  H          0.24820000       0.73250000       0.31130000
   127  H          0.24820000       0.76750000       0.81130000
   128  H          0.75180000       0.26750000       0.68870000
   129  C          0.78597000      -0.00491900       0.07849100
   130  C          0.21403000       0.49508100       0.42150900
   131  C          0.21403000       0.00491900       0.92150900
   132  C          0.78597000       0.50491900       0.57849100
   133  H          0.91390000       0.01560000       0.06170000
   134  H          0.08610000       0.51560000       0.43830000
   135  H          0.08610000       0.98440000       0.93830000
   136  H          0.91390000       0.48440000       0.56170000
   137  C          0.23047000       0.15967100       0.25716100
   138  C          0.76953000       0.65967100       0.24283900
   139  C          0.76953000       0.84032900       0.74283900
   140  C          0.23047000       0.34032900       0.75716100
   141  H          0.09850000       0.14250000       0.27430000
   142  H          0.90150000       0.64250000       0.22570000
   143  H          0.90150000       0.85750000       0.72570000
   144  H          0.09850000       0.35750000       0.77430000
   145  C          0.74047000       0.92637900       0.06001110
   146  C          0.25953000       0.42637900       0.43998890
   147  C          0.25953000       0.07362100       0.93998890
   148  C          0.74047000       0.57362100       0.56001110
   149  H          0.83770000       0.90000000       0.03120000
   150  H          0.16230000       0.40000000       0.46880000
   151  H          0.16230000       0.10000000       0.96880000
   152  H          0.83770000       0.60000000       0.53120000
   153  C          0.40357000       0.93185100       0.12601110
   154  C          0.59643000       0.43185100       0.37398890
   155  C          0.59643000       0.06814900       0.87398890
   156  C          0.40357000       0.56814900       0.62601110
   157  H          0.27600000       0.91000000       0.14130000
   158  H          0.72400000       0.41000000       0.35870000
   159  H          0.72400000       0.09000000       0.85870000
   160  H          0.27600000       0.59000000       0.64130000
   161  C          0.29397000       0.22665100       0.27662100
   162  C          0.70603000       0.72665100       0.22337900
   163  C          0.70603000       0.77334900       0.72337900
   164  C          0.29397000       0.27334900       0.77662100
   165  H          0.20700000       0.25500000       0.30750000
   166  H          0.79300000       0.75500000       0.19250000
   167  H          0.79300000       0.74500000       0.69250000
   168  H          0.20700000       0.24500000       0.80750000
   169  C          0.54657000       0.89435100       0.08410110
   170  C          0.45343000       0.39435100       0.41589890
   171  C          0.45343000       0.10564900       0.91589890
   172  C          0.54657000       0.60564900       0.58410110
   173  H          0.51680000       0.84700000       0.07100000
   174  H          0.48320000       0.34700000       0.42900000
   175  H          0.48320000       0.15300000       0.92900000
   176  H          0.51680000       0.65300000       0.57100000
   177  C          0.49197000       0.25370900       0.25024100
   178  C          0.50803000       0.75370900       0.24975900
   179  C          0.50803000       0.74629100       0.74975900
   180  C          0.49197000       0.24629100       0.75024100
   181  H          0.53400000       0.30010000       0.26370000
   182  H          0.46600000       0.80010000       0.23630000
   183  H          0.46600000       0.69990000       0.73630000
   184  H          0.53400000       0.19990000       0.76370000
