data_ACRDIN04
_symmetry_space_group_name_H-M    'P1'
_symmetry_Int_Tables_number       1
loop_
_symmetry_equiv_pos_site_id
_symmetry_equiv_pos_as_xyz
1 x,y,z
_cell_length_a                   11.25271
_cell_length_b                   5.95105
_cell_length_c                   13.601812
_cell_angle_alpha                90.0
_cell_angle_beta                 99.5272
_cell_angle_gamma                90.0
loop_
_atom_site_label
_atom_site_type_symbol
_atom_site_fract_x
_atom_site_fract_y
_atom_site_fract_z
     1  N          0.06931700       0.77562860       0.10888600
     2  N          0.43068300       0.27562860       0.39111400
     3  N          0.93068300       0.22437140       0.89111400
     4  N          0.56931700       0.72437140       0.60888600
     5  C          0.25810100       0.12492000       0.96770200
     6  C          0.24189900       0.62492000       0.53229800
     7  C          0.74189900       0.87508000       0.03229800
     8  C          0.75810100       0.37508000       0.46770200
     9  C          0.26576110      -0.01892000       0.89146100
    10  C          0.23423890       0.48108000       0.60853900
    11  C          0.73423890       0.01892000       0.10853900
    12  C          0.76576110       0.51892000       0.39146100
    13  C          0.20519100       0.77148000       0.88531200
    14  C          0.29480900       0.27148000       0.61468800
    15  C          0.79480900       0.22852000       0.11468800
    16  C          0.70519100       0.72852000       0.38531200
    17  C          0.13940100       0.70648000       0.95571200
    18  C          0.36059900       0.20648000       0.54428800
    19  C          0.86059900       0.29352000       0.04428800
    20  C          0.63940100       0.79352000       0.45571200
    21  C          0.00010900       0.83298000       0.26348800
    22  C          0.49989100       0.33298000       0.23651200
    23  C         -0.00010900       0.16702000       0.73651200
    24  C          0.50010900       0.66702000       0.76348800
    25  C         -0.00682100       0.96168000       0.34504800
    26  C          0.50682100       0.46168000       0.15495200
    27  C          0.00682100       0.03832000       0.65495200
    28  C          0.49317900       0.53832000       0.84504800
    29  C          0.04754100       0.17722000       0.35590800
    30  C          0.45245900       0.67722000       0.14409200
    31  C          0.95245900       0.82278000       0.64409200
    32  C          0.54754100       0.32278000       0.85590800
    33  C          0.10700900       0.25923190       0.28441800
    34  C          0.39299100       0.75923190       0.21558200
    35  C          0.89299100       0.74076810       0.71558200
    36  C          0.60700900       0.24076810       0.78441800
    37  C          0.18037900       0.20351170       0.12429800
    38  C          0.31962100       0.70351170       0.37570200
    39  C          0.81962100       0.79648830       0.87570200
    40  C          0.68037900       0.29648830       0.62429800
    41  C          0.19034900       0.06466170       0.04377700
    42  C          0.30965100       0.56466170       0.45622300
    43  C          0.80965100       0.93533830       0.95622300
    44  C          0.69034900       0.43533830       0.54377700
    45  C          0.13144900       0.84992830       0.03878700
    46  C          0.36855100       0.34992830       0.46121300
    47  C          0.86855100       0.15007170       0.96121300
    48  C          0.63144900       0.65007170       0.53878700
    49  C          0.06324800       0.91094830       0.18734700
    50  C          0.43675200       0.41094830       0.31265300
    51  C          0.93675200       0.08905170       0.81265300
    52  C          0.56324800       0.58905170       0.68734700
    53  C          0.11765800       0.12931170       0.19811700
    54  C          0.38234200       0.62931170       0.30188300
    55  C          0.88234200       0.87068830       0.80188300
    56  C          0.61765800       0.37068830       0.69811700
    57  H          0.29821100       0.27320000       0.97159000
    58  H          0.20178900       0.77320000       0.52841000
    59  H          0.70178900       0.72680000       0.02841000
    60  H          0.79821100       0.22680000       0.47159000
    61  H          0.31371300       0.02320000       0.83999000
    62  H          0.18628700       0.52320000       0.66001000
    63  H          0.68628700      -0.02320000       0.16001000
    64  H          0.81371300       0.47680000       0.33999000
    65  H          0.21131200       0.67080000       0.83168900
    66  H          0.28868800       0.17080000       0.66831100
    67  H          0.78868800       0.32920000       0.16831100
    68  H          0.71131200       0.82920000       0.33168900
    69  H          0.09711100       0.56380000       0.95051000
    70  H          0.40288900       0.06380000       0.54949000
    71  H          0.90288900       0.43620000       0.04949000
    72  H          0.59711100       0.93620000       0.45051000
    73  H          0.96348900       0.68180000       0.25419000
    74  H          0.53651100       0.18180000       0.24581000
    75  H          0.03651100       0.31820000       0.74581000
    76  H          0.46348900       0.81820000       0.75419000
    77  H          0.95118800       0.90780000       0.39831000
    78  H          0.54881200       0.40780000       0.10169000
    79  H          0.04881200       0.09220000       0.60169000
    80  H          0.45118800       0.59220000       0.89831000
    81  H          0.04121200       0.27120000       0.41441000
    82  H          0.45878800       0.77120000       0.08559000
    83  H          0.95878800       0.72880000       0.58559000
    84  H          0.54121200       0.22880000       0.91441000
    85  H          0.14411100       0.40820000       0.28989000
    86  H          0.35588900       0.90820000       0.21011000
    87  H          0.85588900       0.59180000       0.71011000
    88  H          0.64411100       0.09180000       0.78989000
    89  H          0.21801100       0.35520000       0.12739000
    90  H          0.28198900       0.85520000       0.37261000
    91  H          0.78198900       0.64480000       0.87261000
    92  H          0.71801100       0.14480000       0.62739000
