data_ACRDIN05
_symmetry_space_group_name_H-M    'P1'
_symmetry_Int_Tables_number       1
loop_
_symmetry_equiv_pos_site_id
_symmetry_equiv_pos_as_xyz
1 x,y,z
_cell_length_a                   6.1742
_cell_length_b                   23.4978
_cell_length_c                   12.8684
_cell_angle_alpha                90.0
_cell_angle_beta                 96.4836
_cell_angle_gamma                90.0
loop_
_atom_site_label
_atom_site_type_symbol
_atom_site_fract_x
_atom_site_fract_y
_atom_site_fract_z
     1  N          0.35114000       0.19097900       0.22243170
     2  N          0.35114000       0.80902100       0.72243170
     3  N          0.85114000       0.69097900       0.22243170
     4  N          0.85114000       0.30902100       0.72243170
     5  C          0.87804000       0.11317110       0.24307190
     6  C          0.87804000       0.88682890       0.74307190
     7  C          0.37804000       0.61317110       0.24307190
     8  C          0.37804000       0.38682890       0.74307190
     9  H          0.01630000       0.11230000       0.28370000
    10  H          0.01630000       0.88770000       0.78370000
    11  H          0.51630000       0.61230000       0.28370000
    12  H          0.51630000       0.38770000       0.78370000
    13  C          0.83515000       0.07591120       0.16232000
    14  C          0.83515000       0.92408880       0.66232000
    15  C          0.33515000       0.57591120       0.16232000
    16  C          0.33515000       0.42408880       0.66232000
    17  H          0.94220000       0.04900000       0.14720000
    18  H          0.94220000       0.95100000       0.64720000
    19  H          0.44220000       0.54900000       0.14720000
    20  H          0.44220000       0.45100000       0.64720000
    21  C          0.62975000       0.07745120       0.10102000
    22  C          0.62975000       0.92254880       0.60102000
    23  C          0.12975000       0.57745120       0.10102000
    24  C          0.12975000       0.42254880       0.60102000
    25  H          0.60060000       0.05150000       0.04460000
    26  H          0.60060000       0.94850000       0.54460000
    27  H          0.10060000       0.55150000       0.04460000
    28  H          0.10060000       0.44850000       0.54460000
    29  C          0.47445000       0.11514120       0.12102000
    30  C          0.47445000       0.88485880       0.62102000
    31  C          0.97445000       0.61514120       0.12102000
    32  C          0.97445000       0.38485880       0.62102000
    33  H          0.33820000       0.11530000       0.07850000
    34  H          0.33820000       0.88470000       0.57850000
    35  H          0.83820000       0.61530000       0.07850000
    36  H          0.83820000       0.38470000       0.57850000
    37  C          0.21895000       0.26473120       0.32622000
    38  C          0.21895000       0.73526880       0.82622000
    39  C          0.71895000       0.76473120       0.32622000
    40  C          0.71895000       0.23526880       0.82622000
    41  H          0.08550000       0.26530000       0.28140000
    42  H          0.08550000       0.73470000       0.78140000
    43  H          0.58550000       0.76530000       0.28140000
    44  H          0.58550000       0.23470000       0.78140000
    45  C          0.24635000       0.29997110       0.41003000
    46  C          0.24635000       0.70002890       0.91003000
    47  C          0.74635000       0.79997110       0.41003000
    48  C          0.74635000       0.20002890       0.91003000
    49  H          0.13040000       0.32450000       0.42350000
    50  H          0.13040000       0.67550000       0.92350000
    51  H          0.63040000       0.82450000       0.42350000
    52  H          0.63040000       0.17550000       0.92350000
    53  C          0.44156000       0.30114130       0.47733000
    54  C          0.44156000       0.69885870       0.97733000
    55  C          0.94156000       0.80114130       0.47733000
    56  C          0.94156000       0.19885870       0.97733000
    57  H          0.45600000       0.32590000       0.53590000
    58  H          0.45600000       0.67410000       0.03590000
    59  H          0.95600000       0.82590000       0.53590000
    60  H          0.95600000       0.17410000       0.03590000
    61  C          0.61035000       0.26670110       0.45852000
    62  C          0.61035000       0.73329890       0.95852000
    63  C          0.11035000       0.76670110       0.45852000
    64  C          0.11035000       0.23329890       0.95852000
    65  H          0.74370000       0.26830000       0.50310000
    66  H          0.74370000       0.73170000       0.00310000
    67  H          0.24370000       0.76830000       0.50310000
    68  H          0.24370000       0.23170000       0.00310000
    69  C          0.75384000       0.19091110       0.35122000
    70  C          0.75384000       0.80908890       0.85122000
    71  C          0.25384000       0.69091110       0.35122000
    72  C          0.25384000       0.30908890       0.85122000
    73  H          0.88970000       0.19140000       0.39390000
    74  H          0.88970000       0.80860000       0.89390000
    75  H          0.38970000       0.69140000       0.39390000
    76  H          0.38970000       0.30860000       0.89390000
    77  C          0.71975000       0.15316110       0.26740190
    78  C          0.71975000       0.84683890       0.76740190
    79  C          0.21975000       0.65316110       0.26740190
    80  C          0.21975000       0.34683890       0.76740190
    81  C          0.51225000       0.15443110       0.20482000
    82  C          0.51225000       0.84556890       0.70482000
    83  C          0.01225000       0.65443110       0.20482000
    84  C          0.01225000       0.34556890       0.70482000
    85  C          0.38764000       0.22686110       0.30452000
    86  C          0.38764000       0.77313890       0.80452000
    87  C          0.88764000       0.72686110       0.30452000
    88  C          0.88764000       0.27313890       0.80452000
    89  C          0.58784000       0.22807110       0.37202000
    90  C          0.58784000       0.77192890       0.87202000
    91  C          0.08784000       0.72807110       0.37202000
    92  C          0.08784000       0.27192890       0.87202000
    93  N         -0.00947000       0.97951900       0.98484830
    94  N         -0.00947000       0.02048100       0.48484830
    95  N          0.49053000       0.47951900       0.98484830
    96  N          0.49053000       0.52048100       0.48484830
    97  C          0.47205000       0.00100120       0.83748000
    98  C          0.47205000      -0.00100120       0.33748000
    99  C          0.97205000       0.50100120       0.83748000
   100  C          0.97205000       0.49899880       0.33748000
   101  H          0.59810000       0.98190000       0.81950000
   102  H          0.59810000       0.01810000       0.31950000
   103  H          0.09810000       0.48190000       0.81950000
   104  H          0.09810000       0.51810000       0.31950000
   105  C          0.42646000       0.05430140       0.80298000
   106  C          0.42646000       0.94569860       0.30298000
   107  C          0.92646000       0.55430140       0.80298000
   108  C          0.92646000       0.44569860       0.30298000
   109  H          0.52250000       0.07250000       0.76090000
   110  H          0.52250000       0.92750000       0.26090000
   111  H          0.02250000       0.57250000       0.76090000
   112  H          0.02250000       0.42750000       0.26090000
   113  C          0.23936000       0.08396140       0.82778000
   114  C          0.23936000       0.91603860       0.32778000
   115  C          0.73936000       0.58396140       0.82778000
   116  C          0.73936000       0.41603860       0.32778000
   117  H          0.21290000       0.12170000       0.80320000
   118  H          0.21290000       0.87830000       0.30320000
   119  H          0.71290000       0.62170000       0.80320000
   120  H          0.71290000       0.37830000       0.30320000
   121  C          0.09765000       0.05877120       0.88648000
   122  C          0.09765000       0.94122880       0.38648000
   123  C          0.59765000       0.55877120       0.88648000
   124  C          0.59765000       0.44122880       0.38648000
   125  H          0.97150000       0.07880000       0.90190000
   126  H          0.97150000       0.92120000       0.40190000
   127  H          0.47150000       0.57880000       0.90190000
   128  H          0.47150000       0.42120000       0.40190000
   129  C          0.88235000       0.90241870       0.08532000
   130  C          0.88235000       0.09758130       0.58532000
   131  C          0.38235000       0.40241870       0.08532000
   132  C          0.38235000       0.59758130       0.58532000
   133  H          0.75680000       0.92340000       0.09860000
   134  H          0.75680000       0.07660000       0.59860000
   135  H          0.25680000       0.42340000       0.09860000
   136  H          0.25680000       0.57660000       0.59860000
   137  C          0.91346000       0.84898860       0.12522000
   138  C          0.91346000       0.15101140       0.62522000
   139  C          0.41346000       0.34898860       0.12522000
   140  C          0.41346000       0.65101140       0.62522000
   141  H          0.80720000       0.83240000       0.16380000
   142  H          0.80720000       0.16760000       0.66380000
   143  H          0.30720000       0.33240000       0.16380000
   144  H          0.30720000       0.66760000       0.66380000
   145  C          0.10305000       0.81812870       0.10922000
   146  C          0.10305000       0.18187130       0.60922000
   147  C          0.60305000       0.31812870       0.10922000
   148  C          0.60305000       0.68187130       0.60922000
   149  H          0.12530000       0.78140000       0.13930000
   150  H          0.12530000       0.21860000       0.63930000
   151  H          0.62530000       0.28140000       0.13930000
   152  H          0.62530000       0.71860000       0.63930000
   153  C          0.25345000       0.84014890       0.05182000
   154  C          0.25345000       0.15985110       0.55182000
   155  C          0.75345000       0.34014890       0.05182000
   156  C          0.75345000       0.65985110       0.55182000
   157  H          0.37970000       0.81880000       0.04150000
   158  H          0.37970000       0.18120000       0.54150000
   159  H          0.87970000       0.31880000       0.04150000
   160  H          0.87970000       0.68120000       0.54150000
   161  C          0.36624000       0.91963890       0.94382810
   162  C          0.36624000       0.08036110       0.44382810
   163  C          0.86624000       0.41963890       0.94382810
   164  C          0.86624000       0.58036110       0.44382810
   165  H          0.49190000       0.89910000       0.92950000
   166  H          0.49190000       0.10090000       0.42950000
   167  H         -0.00810000       0.39910000       0.92950000
   168  H         -0.00810000       0.60090000       0.42950000
   169  C          0.32834000       0.97360890       0.90151810
   170  C          0.32834000       0.02639110       0.40151810
   171  C          0.82834000       0.47360890       0.90151810
   172  C          0.82834000       0.52639110       0.40151810
   173  C          0.13595000       0.00238110       0.92548000
   174  C          0.13595000      -0.00238110       0.42548000
   175  C          0.63595000       0.50238110       0.92548000
   176  C          0.63595000       0.49761890       0.42548000
   177  C          0.03374000       0.92691880       0.02472190
   178  C          0.03374000       0.07308120       0.52472190
   179  C          0.53374000       0.42691880       0.02472190
   180  C          0.53374000       0.57308120       0.52472190
   181  C          0.22264000       0.89519890       0.00693190
   182  C          0.22264000       0.10480110       0.50693190
   183  C          0.72264000       0.39519890       0.00693190
   184  C          0.72264000       0.60480110       0.50693190
