data_ACSALA24
_symmetry_space_group_name_H-M    'P1'
_symmetry_Int_Tables_number       1
loop_
_symmetry_equiv_pos_site_id
_symmetry_equiv_pos_as_xyz
1 x,y,z
_cell_length_a                   16.656944
_cell_length_b                   4.44469
_cell_length_c                   23.781233
_cell_angle_alpha                90.0
_cell_angle_beta                 111.060221
_cell_angle_gamma                90.0
loop_
_atom_site_label
_atom_site_type_symbol
_atom_site_fract_x
_atom_site_fract_y
_atom_site_fract_z
     1  C          0.93747200       0.12641800       0.86905600
     2  C          0.06252800       0.62641800       0.63094400
     3  C          0.06252800       0.87358200       0.13094400
     4  C          0.93747200       0.37358200       0.36905600
     5  C          0.98784900       0.90680600       0.85477900
     6  C          0.01215100       0.40680600       0.64522100
     7  C          0.01215100       0.09319400       0.14522100
     8  C          0.98784900       0.59319400       0.35477900
     9  C          0.96435800       0.78993600       0.79708100
    10  C          0.03564200       0.28993600       0.70291900
    11  C          0.03564200       0.21006400       0.20291900
    12  C          0.96435800       0.71006400       0.29708100
    13  C          0.88910700       0.88797100       0.75194100
    14  C          0.11089300       0.38797100       0.74805900
    15  C          0.11089300       0.11202900       0.24805900
    16  C          0.88910700       0.61202900       0.25194100
    17  C          0.83674900       0.10016200       0.76535700
    18  C          0.16325100       0.60016200       0.73464300
    19  C          0.16325100       0.89983800       0.23464300
    20  C          0.83674900       0.39983800       0.26535700
    21  C          0.86100900       0.21688600       0.82335500
    22  C          0.13899100       0.71688600       0.67664500
    23  C          0.13899100       0.78311400       0.17664500
    24  C          0.86100900       0.28311400       0.32335500
    25  C          0.96429200       0.27134100       0.92882600
    26  C          0.03570800       0.77134100       0.57117400
    27  C          0.03570800       0.72865900       0.07117400
    28  C          0.96429200       0.22865900       0.42882600
    29  C          0.13643600       0.92579200       0.91576400
    30  C          0.86356400       0.42579200       0.58423600
    31  C          0.86356400       0.07420800       0.08423600
    32  C          0.13643600       0.57420800       0.41576400
    33  C          0.20017100       0.78630900       0.97088100
    34  C          0.79982900       0.28630900       0.52911900
    35  C          0.79982900       0.21369100       0.02911900
    36  C          0.20017100       0.71369100       0.47088100
    37  O          0.90663400       0.45713100       0.93589300
    38  O          0.09336600       0.95713100       0.56410700
    39  O          0.09336600       0.54286900       0.06410700
    40  O          0.90663400       0.04286900       0.43589300
    41  O          0.03622700       0.22799400       0.96869400
    42  O          0.96377300       0.72799400       0.53130600
    43  O          0.96377300       0.77200600       0.03130600
    44  O          0.03622700       0.27200600       0.46869400
    45  O          0.05872800       0.78055100       0.89947300
    46  O          0.94127200       0.28055100       0.60052700
    47  O          0.94127200       0.21944900       0.10052700
    48  O          0.05872800       0.71944900       0.39947300
    49  O          0.14848200       0.13812700       0.88741900
    50  O          0.85151800       0.63812700       0.61258100
    51  O          0.85151800       0.86187300       0.11258100
    52  O          0.14848200       0.36187300       0.38741900
    53  H          0.00519100       0.61881400       0.78833300
    54  H         -0.00519100       0.11881400       0.71166700
    55  H         -0.00519100       0.38118600       0.21166700
    56  H          0.00519100       0.88118600       0.28833300
    57  H          0.87220800       0.79801800       0.70638300
    58  H          0.12779200       0.29801800       0.79361700
    59  H          0.12779200       0.20198200       0.29361700
    60  H          0.87220800       0.70198200       0.20638300
    61  H          0.77691700       0.17670500       0.73097000
    62  H          0.22308300       0.67670500       0.76903000
    63  H          0.22308300       0.82329500       0.26903000
    64  H          0.77691700       0.32329500       0.23097000
    65  H          0.82139100       0.38558800       0.83412300
    66  H          0.17860900       0.88558800       0.66587700
    67  H          0.17860900       0.61441200       0.16587700
    68  H          0.82139100       0.11441200       0.33412300
    69  H          0.19836000       0.54018300       0.96586400
    70  H          0.80164000       0.04018300       0.53413600
    71  H          0.80164000       0.45981700       0.03413600
    72  H          0.19836000       0.95981700       0.46586400
    73  H          0.18140500       0.84118000       0.00967900
    74  H          0.81859500       0.34118000       0.49032100
    75  H          0.81859500       0.15882000       0.99032100
    76  H          0.18140500       0.65882000       0.50967900
    77  H          0.26486500       0.87245100       0.97843000
    78  H          0.73513500       0.37245100       0.52157000
    79  H          0.73513500       0.12754900       0.02157000
    80  H          0.26486500       0.62754900       0.47843000
    81  H          0.93193100       0.57810000       0.97588400
    82  H          0.06806900       0.07810000       0.52411600
    83  H          0.06806900       0.42190000       0.02411600
    84  H          0.93193100       0.92190000       0.47588400
    85  C          0.41737000       0.29961000       0.59837300
    86  C          0.58263000       0.79961000       0.90162700
    87  C          0.58263000       0.70039000       0.40162700
    88  C          0.41737000       0.20039000       0.09837300
    89  C          0.45864100       0.52434200       0.64062300
    90  C          0.54135900       0.02434200       0.85937700
    91  C          0.54135900       0.47565800       0.35937700
    92  C          0.45864100      -0.02434200       0.14062300
    93  C          0.42663300       0.61627200       0.68426300
    94  C          0.57336700       0.11627200       0.81573700
    95  C          0.57336700       0.38372800       0.31573700
    96  C          0.42663300       0.88372800       0.18426300
    97  C          0.35000900       0.49242600       0.68496600
    98  C          0.64999100      -0.00757400       0.81503400
    99  C          0.64999100       0.50757400       0.31503400
   100  C          0.35000900       0.00757400       0.18496600
   101  C          0.30559900       0.28029800       0.64179300
   102  C          0.69440100       0.78029800       0.85820700
   103  C          0.69440100       0.71970200       0.35820700
   104  C          0.30559900       0.21970200       0.14179300
   105  C          0.33973500       0.18150000       0.59961600
   106  C          0.66026500       0.68150000       0.90038400
   107  C          0.66026500       0.81850000       0.40038400
   108  C          0.33973500       0.31850000       0.09961600
   109  C          0.45368800       0.17986300       0.55454200
   110  C          0.54631200       0.67986300       0.94545800
   111  C          0.54631200       0.82013700       0.44545800
   112  C          0.45368800       0.32013700       0.05454200
   113  C          0.60897000       0.55250000       0.66223100
   114  C          0.39103000       0.05250000       0.83776900
   115  C          0.39103000       0.44750000       0.33776900
   116  C          0.60897000       0.94750000       0.16223100
   117  C          0.67480700       0.70949000       0.64381700
   118  C          0.32519300       0.20949000       0.85618300
   119  C          0.32519300       0.29051000       0.35618300
   120  C          0.67480700       0.79051000       0.14381700
   121  O          0.40270000      -0.01342700       0.51532700
   122  O          0.59730000       0.48657300       0.98467300
   123  O          0.59730000       0.01342700       0.48467300
   124  O          0.40270000       0.51342700       0.01532700
   125  O          0.52608800       0.24990600       0.55447300
   126  O          0.47391200       0.74990600       0.94552700
   127  O          0.47391200       0.75009400       0.44552700
   128  O          0.52608800       0.25009400       0.05447300
   129  O          0.52917100       0.67838300       0.63635700
   130  O          0.47082900       0.17838300       0.86364300
   131  O          0.47082900       0.32161700       0.36364300
   132  O          0.52917100       0.82161700       0.13635700
   133  O          0.62162400       0.33682200       0.69601600
   134  O          0.37837600       0.83682200       0.80398400
   135  O          0.37837600       0.66317800       0.30398400
   136  O          0.62162400       0.16317800       0.19601600
   137  H          0.46064300       0.78956000       0.71664900
   138  H          0.53935700       0.28956000       0.78335100
   139  H          0.53935700       0.21044000       0.28335100
   140  H          0.46064300       0.71044000       0.21664900
   141  H          0.32545200       0.56765300       0.71922300
   142  H          0.67454800       0.06765300       0.78077700
   143  H          0.67454800       0.43234700       0.28077700
   144  H          0.32545200       0.93234700       0.21922300
   145  H          0.24444300       0.18948900       0.64109800
   146  H          0.75555700       0.68948900       0.85890200
   147  H          0.75555700       0.81051100       0.35890200
   148  H          0.24444300       0.31051100       0.14109800
   149  H          0.30759100       0.00617300       0.56740800
   150  H          0.69240900       0.50617300       0.93259200
   151  H          0.69240900      -0.00617300       0.43259200
   152  H          0.30759100       0.49382700       0.06740800
   153  H          0.67071600       0.95344400       0.64934300
   154  H          0.32928400       0.45344400       0.85065700
   155  H          0.32928400       0.04655600       0.35065700
   156  H          0.67071600       0.54655600       0.14934300
   157  H          0.66179100       0.66474800       0.59581800
   158  H          0.33820900       0.16474800       0.90418200
   159  H          0.33820900       0.33525200       0.40418200
   160  H          0.66179100       0.83525200       0.09581800
   161  H          0.73885600       0.62529200       0.67065400
   162  H          0.26114400       0.12529200       0.82934600
   163  H          0.26114400       0.37470800       0.32934600
   164  H          0.73885600       0.87470800       0.17065400
   165  H          0.43310100       0.89633300       0.48837100
   166  H          0.56689900       0.39633300       0.01162900
   167  H          0.56689900       0.10366700       0.51162900
   168  H          0.43310100       0.60366700       0.98837100
