data_ACSALA13
_symmetry_space_group_name_H-M    'P1'
_symmetry_Int_Tables_number       1
loop_
_symmetry_equiv_pos_site_id
_symmetry_equiv_pos_as_xyz
1 x,y,z
_cell_length_a                   12.0957
_cell_length_b                   6.4914
_cell_length_c                   11.3236
_cell_angle_alpha                90.0
_cell_angle_beta                 111.5099
_cell_angle_gamma                90.0
loop_
_atom_site_label
_atom_site_type_symbol
_atom_site_fract_x
_atom_site_fract_y
_atom_site_fract_z
     1  O          0.37688000       0.14101600       0.88839000
     2  O          0.62312000       0.64101600       0.61161000
     3  O          0.62312000       0.85898400       0.11161000
     4  O          0.37688000       0.35898400       0.38839000
     5  H          0.41690000       0.03220000       0.89910000
     6  H          0.58310000       0.53220000       0.60090000
     7  H          0.58310000       0.96780000       0.10090000
     8  H          0.41690000       0.46780000       0.39910000
     9  O          0.48958000       0.18741600       0.09059000
    10  O          0.51042000       0.68741600       0.40941000
    11  O          0.51042000       0.81258400       0.90941000
    12  O          0.48958000       0.31258400       0.59059000
    13  O          0.21028000       0.41951500       0.76998000
    14  O          0.78972000       0.91951500       0.73002000
    15  O          0.78972000       0.58048500       0.23002000
    16  O          0.21028000       0.08048500       0.26998000
    17  O          0.09318000       0.21841500       0.83669000
    18  O          0.90682000       0.71841500       0.66331000
    19  O          0.90682000       0.78158500       0.16331000
    20  O          0.09318000       0.28158500       0.33669000
    21  C          0.34741300       0.44530000      -0.00798600
    22  C          0.65258700       0.94530000       0.50798600
    23  C          0.65258700       0.55470000       0.00798600
    24  C          0.34741300       0.05470000       0.49201400
    25  C          0.25101300       0.52120000       0.88781300
    26  C          0.74898700       0.02120000       0.61218700
    27  C          0.74898700       0.47880000       0.11218700
    28  C          0.25101300      -0.02120000       0.38781300
    29  C          0.19971400       0.70530000       0.89161500
    30  C          0.80028600       0.20530000       0.60838500
    31  C          0.80028600       0.29470000       0.10838500
    32  C          0.19971400       0.79470000       0.39161500
    33  H          0.14080000       0.76180000       0.81790000
    34  H          0.85920000       0.26180000       0.68210000
    35  H          0.85920000       0.23820000       0.18210000
    36  H          0.14080000       0.73820000       0.31790000
    37  C          0.23691300       0.81030000       0.00891400
    38  C          0.76308700       0.31030000       0.49108600
    39  C          0.76308700       0.18970000      -0.00891400
    40  C          0.23691300       0.68970000       0.50891400
    41  H          0.19530000       0.93020000       0.01590000
    42  H          0.80470000       0.43020000       0.48410000
    43  H          0.80470000       0.06980000       0.98410000
    44  H          0.19530000       0.56980000       0.51590000
    45  C          0.32951200       0.74520000       0.11191300
    46  C          0.67048800       0.24520000       0.38808700
    47  C          0.67048800       0.25480000       0.88808700
    48  C          0.32951200       0.75480000       0.61191300
    49  H          0.35750000       0.82640000       0.18700000
    50  H          0.64250000       0.32640000       0.31300000
    51  H          0.64250000       0.17360000       0.81300000
    52  H          0.35750000       0.67360000       0.68700000
    53  C          0.38261300       0.55920000       0.10561400
    54  C          0.61738700       0.05920000       0.39438600
    55  C          0.61738700       0.44080000       0.89438600
    56  C          0.38261300       0.94080000       0.60561400
    57  H          0.44390000       0.50730000       0.17910000
    58  H          0.55610000       0.00730000       0.32090000
    59  H          0.55610000       0.49270000       0.82090000
    60  H          0.44390000      -0.00730000       0.67910000
    61  C          0.41001200       0.24420000      -0.00608700
    62  C          0.58998800       0.74420000       0.50608700
    63  C          0.58998800       0.75580000       0.00608700
    64  C          0.41001200       0.25580000       0.49391300
    65  C          0.13061200       0.25820000       0.75741300
    66  C          0.86938800       0.75820000       0.74258700
    67  C          0.86938800       0.74180000       0.24258700
    68  C          0.13061200       0.24180000       0.25741300
    69  C          0.10181400       0.16430000       0.62731400
    70  C          0.89818600       0.66430000       0.87268600
    71  C          0.89818600       0.83570000       0.37268600
    72  C          0.10181400       0.33570000       0.12731400
    73  H          0.05230000       0.04090000       0.61940000
    74  H          0.94770000       0.54090000       0.88060000
    75  H          0.94770000       0.95910000       0.38060000
    76  H          0.05230000       0.45910000       0.11940000
    77  H          0.17560000       0.12440000       0.61620000
    78  H          0.82440000       0.62440000       0.88380000
    79  H          0.82440000       0.87560000       0.38380000
    80  H          0.17560000       0.37560000       0.11620000
    81  H          0.05870000       0.26390000       0.56190000
    82  H          0.94130000       0.76390000       0.93810000
    83  H          0.94130000       0.73610000       0.43810000
    84  H          0.05870000       0.23610000       0.06190000
