data_ACSALA12
_symmetry_space_group_name_H-M    'P1'
_symmetry_Int_Tables_number       1
loop_
_symmetry_equiv_pos_site_id
_symmetry_equiv_pos_as_xyz
1 x,y,z
_cell_length_a                   11.2333
_cell_length_b                   6.54401
_cell_length_c                   11.2313
_cell_angle_alpha                90.0
_cell_angle_beta                 95.892
_cell_angle_gamma                90.0
loop_
_atom_site_label
_atom_site_type_symbol
_atom_site_fract_x
_atom_site_fract_y
_atom_site_fract_z
     1  C          0.15367000       0.56261400       0.06641200
     2  C          0.84633000       0.06261400       0.43358800
     3  C          0.84633000       0.43738600       0.93358800
     4  C          0.15367000       0.93738600       0.56641200
     5  C          0.24467000       0.48821300       0.01011300
     6  C          0.75533000      -0.01178700       0.48988700
     7  C          0.75533000       0.51178700      -0.01011300
     8  C          0.24467000       0.01178700       0.51011300
     9  C          0.29939000       0.30401500       0.04271600
    10  C          0.70061000       0.80401500       0.45728400
    11  C          0.70061000       0.69598500       0.95728400
    12  C          0.29939000       0.19598500       0.54271600
    13  C          0.26119000       0.19281500       0.13561600
    14  C          0.73881000       0.69281500       0.36438400
    15  C          0.73881000       0.80718500       0.86438400
    16  C          0.26119000       0.30718500       0.63561600
    17  C          0.16858000       0.26751400       0.19501500
    18  C          0.83142000       0.76751400       0.30498500
    19  C          0.83142000       0.73248600       0.80498500
    20  C          0.16858000       0.23248600       0.69501500
    21  C          0.11628000       0.44901500       0.16241400
    22  C          0.88372000       0.94901500       0.33758600
    23  C          0.88372000       0.55098500       0.83758600
    24  C          0.11628000       0.05098500       0.66241400
    25  C          0.09017000       0.75811300       0.03651400
    26  C          0.90983000       0.25811300       0.46348600
    27  C          0.90983000       0.24188700       0.96348600
    28  C          0.09017000       0.74188700       0.53651400
    29  C          0.36528000       0.73841500       0.93668500
    30  C          0.63472000       0.23841500       0.56331500
    31  C          0.63472000       0.26158500       0.06331500
    32  C          0.36528000       0.76158500       0.43668500
    33  C          0.39781100       0.84120000       0.82648500
    34  C          0.60218900       0.34120000       0.67351500
    35  C          0.60218900       0.15880000       0.17351500
    36  C          0.39781100       0.65880000       0.32648500
    37  O          0.12051000       0.86420000       0.95178400
    38  O          0.87949000       0.36420000       0.54821600
    39  O          0.87949000       0.13580000       0.04821600
    40  O          0.12051000       0.63580000       0.45178400
    41  O          0.00841100       0.81091800       0.09921800
    42  O         -0.00841100       0.31091800       0.40078200
    43  O         -0.00841100       0.18908200       0.90078200
    44  O          0.00841100       0.68908200       0.59921800
    45  O          0.28491000       0.58931800       0.91308400
    46  O          0.71509000       0.08931800       0.58691600
    47  O          0.71509000       0.41068200       0.08691600
    48  O          0.28491000       0.91068200       0.41308400
    49  O          0.40201200       0.78120000       0.03461800
    50  O          0.59798800       0.28120000       0.46538200
    51  O          0.59798800       0.21880000       0.96538200
    52  O          0.40201200       0.71880000       0.53461800
    53  H          0.36820000       0.24740000      -0.00230000
    54  H          0.63180000       0.74740000       0.50230000
    55  H          0.63180000       0.75260000       0.00230000
    56  H          0.36820000       0.25260000       0.49770000
    57  H          0.30520000       0.05440000       0.15740000
    58  H          0.69480000       0.55440000       0.34260000
    59  H          0.69480000       0.94560000       0.84260000
    60  H          0.30520000       0.44560000       0.65740000
    61  H          0.14420000       0.17940000       0.26740000
    62  H          0.85580000       0.67940000       0.23260000
    63  H          0.85580000       0.82060000       0.73260000
    64  H          0.14420000       0.32060000       0.76740000
    65  H          0.04620000       0.50340000       0.20230000
    66  H          0.95380000       0.00340000       0.29770000
    67  H          0.95380000       0.49660000       0.79770000
    68  H          0.04620000      -0.00340000       0.70230000
    69  H          0.47330000       0.96060000       0.85250000
    70  H          0.52670000       0.46060000       0.64750000
    71  H          0.52670000       0.03940000       0.14750000
    72  H          0.47330000       0.53940000       0.35250000
    73  H          0.32780000       0.86914000       0.76890000
    74  H          0.67220000       0.36914000       0.73110000
    75  H          0.67220000       0.13086000       0.23110000
    76  H          0.32780000       0.63086000       0.26890000
    77  H          0.43750000       0.71510000       0.73020000
    78  H          0.56250000       0.21510000       0.76980000
    79  H          0.56250000       0.28490000       0.26980000
    80  H          0.43750000       0.78490000       0.23020000
    81  H          0.07030000      -0.00360000       0.92860000
    82  H          0.92970000       0.49640000       0.57140000
    83  H          0.92970000       0.00360000       0.07140000
    84  H          0.07030000       0.50360000       0.42860000
