data_ACSALA
_symmetry_space_group_name_H-M    'P1'
_symmetry_Int_Tables_number       1
loop_
_symmetry_equiv_pos_site_id
_symmetry_equiv_pos_as_xyz
1 x,y,z
_cell_length_a                   11.446
_cell_length_b                   6.596
_cell_length_c                   11.388
_cell_angle_alpha                90.0
_cell_angle_beta                 95.55
_cell_angle_gamma                90.0
loop_
_atom_site_label
_atom_site_type_symbol
_atom_site_fract_x
_atom_site_fract_y
_atom_site_fract_z
     1  C          0.15310000       0.43650000       0.06740000
     2  C          0.84690000       0.93650000       0.43260000
     3  C          0.84690000       0.56350000       0.93260000
     4  C          0.15310000       0.06350000       0.56740000
     5  C          0.24630000       0.51180000       0.00920000
     6  C          0.75370000       0.01180000       0.49080000
     7  C          0.75370000       0.48820000      -0.00920000
     8  C          0.24630000      -0.01180000       0.50920000
     9  C          0.29930000       0.69470000       0.04190000
    10  C          0.70070000       0.19470000       0.45810000
    11  C          0.70070000       0.30530000       0.95810000
    12  C          0.29930000       0.80530000       0.54190000
    13  C          0.26080000       0.80440000       0.13470000
    14  C          0.73920000       0.30440000       0.36530000
    15  C          0.73920000       0.19560000       0.86530000
    16  C          0.26080000       0.69560000       0.63470000
    17  C          0.16980000       0.73160000       0.19380000
    18  C          0.83020000       0.23160000       0.30620000
    19  C          0.83020000       0.26840000       0.80620000
    20  C          0.16980000       0.76840000       0.69380000
    21  C          0.11670000       0.55050000       0.16020000
    22  C          0.88330000       0.05050000       0.33980000
    23  C          0.88330000       0.44950000       0.83980000
    24  C          0.11670000       0.94950000       0.66020000
    25  C          0.08980000       0.24170000       0.03720000
    26  C          0.91020000       0.74170000       0.46280000
    27  C          0.91020000       0.75830000       0.96280000
    28  C          0.08980000       0.25830000       0.53720000
    29  C          0.36530000       0.26110000       0.93690000
    30  C          0.63470000       0.76110000       0.56310000
    31  C          0.63470000       0.73890000       0.06310000
    32  C          0.36530000       0.23890000       0.43690000
    33  C          0.39700000       0.16180000       0.82620000
    34  C          0.60300000       0.66180000       0.67380000
    35  C          0.60300000       0.83820000       0.17380000
    36  C          0.39700000       0.33820000       0.32620000
    37  H          0.07130000      -0.00200000       0.91910000
    38  H          0.92870000       0.49800000       0.58090000
    39  H          0.92870000       0.00200000       0.08090000
    40  H          0.07130000       0.50200000       0.41910000
    41  H          0.36130000       0.73790000       0.00140000
    42  H          0.63870000       0.23790000       0.49860000
    43  H          0.63870000       0.26210000      -0.00140000
    44  H          0.36130000       0.76210000       0.50140000
    45  H          0.30020000       0.93970000       0.16280000
    46  H          0.69980000       0.43970000       0.33720000
    47  H          0.69980000       0.06030000       0.83720000
    48  H          0.30020000       0.56030000       0.66280000
    49  H          0.14400000       0.80580000       0.25700000
    50  H          0.85600000       0.30580000       0.24300000
    51  H          0.85600000       0.19420000       0.74300000
    52  H          0.14400000       0.69420000       0.75700000
    53  H          0.05550000       0.50710000       0.19910000
    54  H          0.94450000       0.00710000       0.30090000
    55  H          0.94450000       0.49290000       0.80090000
    56  H          0.05550000      -0.00710000       0.69910000
    57  H          0.30970000       0.12060000       0.76390000
    58  H          0.69030000       0.62060000       0.73610000
    59  H          0.69030000       0.87940000       0.23610000
    60  H          0.30970000       0.37940000       0.26390000
    61  H          0.43090000       0.03700000       0.83030000
    62  H          0.56910000       0.53700000       0.66970000
    63  H          0.56910000       0.96300000       0.16970000
    64  H          0.43090000       0.46300000       0.33030000
    65  H          0.42990000       0.23030000       0.78380000
    66  H          0.57010000       0.73030000       0.71620000
    67  H          0.57010000       0.76970000       0.21620000
    68  H          0.42990000       0.26970000       0.28380000
    69  O          0.01060000       0.18760000       0.09660000
    70  O         -0.01060000       0.68760000       0.40340000
    71  O         -0.01060000       0.81240000       0.90340000
    72  O          0.01060000       0.31240000       0.59660000
    73  O          0.12030000       0.13870000       0.94920000
    74  O          0.87970000       0.63870000       0.55080000
    75  O          0.87970000       0.86130000       0.05080000
    76  O          0.12030000       0.36130000       0.44920000
    77  O          0.28530000       0.41200000       0.91160000
    78  O          0.71470000       0.91200000       0.58840000
    79  O          0.71470000       0.58800000       0.08840000
    80  O          0.28530000       0.08800000       0.41160000
    81  O          0.40310000       0.21990000       0.03430000
    82  O          0.59690000       0.71990000       0.46570000
    83  O          0.59690000       0.78010000       0.96570000
    84  O          0.40310000       0.28010000       0.53430000
