data_AFORIY
_symmetry_space_group_name_H-M    'P1'
_symmetry_Int_Tables_number       1
loop_
_symmetry_equiv_pos_site_id
_symmetry_equiv_pos_as_xyz
1 x,y,z
_cell_length_a                   8.93193
_cell_length_b                   11.66905
_cell_length_c                   14.01396
_cell_angle_alpha                100.4444
_cell_angle_beta                 107.5213
_cell_angle_gamma                105.0923
loop_
_atom_site_label
_atom_site_type_symbol
_atom_site_fract_x
_atom_site_fract_y
_atom_site_fract_z
     1  C          0.52523000       0.85188000       0.37142000
     2  C          0.47477000       0.14812000       0.62858000
     3  H          0.50180000       0.76710000       0.36100000
     4  H          0.49820000       0.23290000       0.63900000
     5  C          0.41914000       0.89347000       0.30662000
     6  C          0.58086000       0.10653000       0.69338000
     7  H          0.32460000       0.83750000       0.25220000
     8  H          0.67540000       0.16250000       0.74780000
     9  C          0.45194000       0.02063000       0.32172000
    10  C          0.54806000       0.97937000       0.67828000
    11  H          0.37930000       0.04860000       0.27670000
    12  H          0.62070000       0.95140000       0.72330000
    13  C          0.58824000       0.10353000       0.40122000
    14  C          0.41176000       0.89647000       0.59878000
    15  H          0.60730000       0.18780000       0.41140000
    16  H          0.39270000       0.81220000       0.58860000
    17  C          0.09583000       0.20292000       0.69262000
    18  C          0.90417000       0.79708000       0.30738000
    19  H          0.11240000       0.28610000       0.69750000
    20  H          0.88760000       0.71390000       0.30250000
    21  C          0.20874000       0.16973000       0.75982000
    22  C          0.79126000       0.83027000       0.24018000
    23  H          0.30330000       0.23050000       0.81030000
    24  H          0.69670000       0.76950000       0.18970000
    25  C          0.18554000       0.04423000       0.75462000
    26  C          0.81446000       0.95577000       0.24538000
    27  H          0.26270000       0.02230000       0.80250000
    28  H          0.73730000       0.97770000       0.19750000
    29  C          0.04924000       0.95548000       0.67892000
    30  C          0.95076000       0.04452000       0.32108000
    31  H          0.03500000       0.87270000       0.67500000
    32  H          0.96500000       0.12730000       0.32500000
    33  C          0.78653000       0.89458000       0.52362000
    34  C          0.21347000       0.10542000       0.47638000
    35  N          0.83983000       0.14545190       0.54649170
    36  N          0.16017000       0.85454810       0.45350830
    37  H          0.85720000       0.22300000       0.55310000
    38  H          0.14280000       0.77700000       0.44690000
    39  C          0.66993000       0.93408000       0.45412000
    40  C          0.33007000       0.06592000       0.54588000
    41  C          0.70063000       0.06192000       0.46822000
    42  C          0.29937000       0.93808000       0.53178000
    43  C          0.92833000      -0.01422000       0.60592000
    44  C          0.07167000       0.01422000       0.39408000
    45  C          0.95203000       0.11132000       0.61442000
    46  C          0.04797000       0.88868000       0.38558000
    47  N          0.76253000       0.77521810       0.51153180
    48  N          0.23747000       0.22478190       0.48846820
    49  H          0.83270000       0.75180000       0.55350000
    50  H          0.16730000       0.24820000       0.44650000
    51  H          0.67670000       0.72110000       0.46170000
    52  H          0.32330000       0.27890000       0.53830000
    53  C          0.38173000       0.37082000       0.23402000
    54  C          0.61827000       0.62918000       0.76598000
    55  C          0.35313000       0.39272000       0.13742000
    56  C          0.64687000       0.60728000       0.86258000
    57  C          0.21963000       0.31802000       0.04912000
    58  C          0.78037000       0.68198000       0.95088000
    59  H          0.20360000       0.33480000       0.98500000
    60  H          0.79640000       0.66520000       0.01500000
    61  C          0.11093000       0.21762000       0.05952000
    62  C          0.88907000       0.78238000       0.94048000
    63  C          0.13324000       0.19062000       0.15312000
    64  C          0.86676000       0.80938000       0.84688000
    65  H          0.05810000       0.12170000       0.15770000
    66  H          0.94190000       0.87830000       0.84230000
    67  C          0.26834000       0.26712000       0.23982000
    68  C          0.73166000       0.73288000       0.76018000
    69  H          0.28430000       0.24930000       0.30350000
    70  H          0.71570000       0.75070000       0.69650000
    71  C          0.51694000       0.45902000       0.33272000
    72  C          0.48306000       0.54098000       0.66728000
    73  O          0.57623000       0.40575180       0.40005170
    74  O          0.42377000       0.59424820       0.59994830
    75  H          0.65530000       0.45330000       0.45791900
    76  H          0.34470000       0.54670000       0.54208100
    77  O          0.55513000       0.56895180       0.34301170
    78  O          0.44487000       0.43104820       0.65698830
    79  N          0.47213000       0.49682000       0.12447190
    80  N          0.52787000       0.50318000       0.87552810
    81  O          0.62003000       0.51041190       0.15992000
    82  O          0.37997000       0.48958810       0.84008000
    83  O          0.41643000       0.56312000       0.07672000
    84  O          0.58357000       0.43688000       0.92328000
    85  N          0.96697000       0.13572000       0.96698000
    86  N          0.03303000       0.86428000       0.03302000
    87  O          0.96097000       0.14802000       0.88208810
    88  O          0.03903000       0.85198000       0.11791190
    89  O          0.85937000       0.05782000       0.98072810
    90  O          0.14063000       0.94218000       0.01927190
    91  C          0.03763000       0.57782000       0.70782000
    92  C          0.96237000       0.42218000       0.29218000
    93  C          0.04703000       0.56082000       0.80472000
    94  C          0.95297000       0.43918000       0.19528000
    95  C          0.17053000       0.63912000       0.89742000
    96  C          0.82947000       0.36088000       0.10258000
    97  H          0.17210000       0.62690000       0.96140000
    98  H          0.82790000       0.37310000       0.03860000
    99  C          0.29053000       0.73562000       0.89092000
   100  C          0.70947000       0.26438000       0.10908000
   101  C          0.29024000       0.75433000       0.79662000
   102  C          0.70976000       0.24567000       0.20338000
   103  H          0.37420000       0.81880000       0.79400000
   104  H          0.62580000       0.18120000       0.20600000
   105  C          0.16404000       0.67622000       0.70662000
   106  C          0.83596000       0.32378000       0.29338000
   107  H          0.16290000       0.68950000       0.64300000
   108  H          0.83710000       0.31050000       0.35700000
   109  C          0.90514000       0.49712000       0.60502000
   110  C          0.09486000       0.50288000       0.39498000
   111  O          0.80123000       0.54660170       0.56381160
   112  O          0.19877000       0.45339830       0.43618840
   113  O          0.91073000       0.39590170       0.56570170
   114  O          0.08927000       0.60409830       0.43429830
   115  N          0.92213000       0.45592000       0.81212000
   116  N          0.07787000       0.54408000       0.18788000
   117  O          0.79073000       0.40832000       0.74062000
   118  O          0.20927000       0.59168000       0.25938000
   119  O          0.95733000       0.42223000       0.89042000
   120  O          0.04267000       0.57777000       0.10958000
   121  N          0.42453000       0.81712000       0.98752000
   122  N          0.57547000       0.18288000       0.01248000
   123  O          0.40453000       0.81922000       0.06943180
   124  O          0.59547000       0.18078000       0.93056820
   125  O          0.55083000       0.87803000       0.98002000
   126  O          0.44917000       0.12197000       0.01998000
