data_AFORIY01
_symmetry_space_group_name_H-M    'P1'
_symmetry_Int_Tables_number       1
loop_
_symmetry_equiv_pos_site_id
_symmetry_equiv_pos_as_xyz
1 x,y,z
_cell_length_a                   7.701301
_cell_length_b                   10.7352
_cell_length_c                   16.95818
_cell_angle_alpha                98.20231
_cell_angle_beta                 102.83018
_cell_angle_gamma                92.75042
loop_
_atom_site_label
_atom_site_type_symbol
_atom_site_fract_x
_atom_site_fract_y
_atom_site_fract_z
     1  C          0.31963000       0.36482000       0.35777130
     2  C          0.68037000       0.63518000       0.64222870
     3  H          0.31950000       0.40840000       0.31410000
     4  H          0.68050000       0.59160000       0.68590000
     5  C          0.35073000       0.24113000       0.34998150
     6  C          0.64927000       0.75887000       0.65001850
     7  H          0.37230000       0.20070000       0.30120000
     8  H          0.62770000       0.79930000       0.69880000
     9  C          0.35064000       0.17342000       0.41457160
    10  C          0.64936000       0.82658000       0.58542840
    11  H          0.37090000       0.08830000       0.40820000
    12  H          0.62910000       0.91170000       0.59180000
    13  C          0.32113000       0.23102000       0.48628150
    14  C          0.67887000       0.76898000       0.51371850
    15  H          0.32170000       0.18560000       0.52910000
    16  H          0.67830000       0.81440000       0.47090000
    17  C          0.18643000       0.58973000       0.65633130
    18  C          0.81357000       0.41027000       0.34366870
    19  H          0.19280000       0.54060000       0.69770000
    20  H          0.80720000       0.45940000       0.30230000
    21  C          0.14553000       0.71133000       0.66898140
    22  C          0.85447000       0.28867000       0.33101860
    23  H          0.12410000       0.74510000       0.71920000
    24  H          0.87590000       0.25490000       0.28080000
    25  C          0.13503000       0.78642000       0.60776140
    26  C          0.86497000       0.21358000       0.39223860
    27  H          0.10470000       0.86920000       0.61690000
    28  H          0.89530000       0.13080000       0.38310000
    29  C          0.16903000       0.73852000       0.53472140
    30  C          0.83097000       0.26148000       0.46527860
    31  H          0.16420000       0.79000000       0.49470000
    32  H          0.83580000       0.21000000       0.50530000
    33  C          0.24523000       0.55802000       0.44164120
    34  C          0.75477000       0.44198000       0.55835880
    35  N          0.25722000       0.41638180       0.56754100
    36  N          0.74278000       0.58361820       0.43245900
    37  H          0.26110000       0.37250000       0.60650000
    38  H          0.73890000       0.62750000       0.39350000
    39  C          0.28733000       0.42842000       0.43116120
    40  C          0.71267000       0.57158000       0.56883880
    41  C          0.28963000       0.35972000       0.49572130
    42  C          0.71037000       0.64028000       0.50427870
    43  C          0.21143000       0.61292000       0.51805120
    44  C          0.78857000       0.38708000       0.48194880
    45  C          0.21923000       0.53832000       0.58072120
    46  C          0.78077000       0.46168000       0.41927880
    47  N          0.23493000       0.62514180       0.38139110
    48  N          0.76507000       0.37485820       0.61860890
    49  H          0.20780000       0.70210000       0.38810000
    50  H          0.79220000       0.29790000       0.61190000
    51  H          0.25540000       0.59180000       0.33550000
    52  H          0.74460000       0.40820000       0.66450000
    53  C          0.62753000       0.47052000       0.90453120
    54  C          0.37247000       0.52948000       0.09546880
    55  C          0.70043000       0.59372000       0.93239140
    56  C          0.29957000       0.40628000       0.06760860
    57  C          0.81143000       0.63132000       0.00901140
    58  C          0.18857000       0.36868000       0.99098860
    59  H          0.86050000       0.71420000       0.02600000
    60  H          0.13950000       0.28580000       0.97400000
    61  C          0.84613000       0.54132000       0.05902130
    62  C          0.15387000       0.45868000       0.94097870
    63  C          0.77613000       0.41872000       0.03503140
    64  C          0.22387000       0.58128000       0.96496860
    65  H          0.80100000       0.35970000       0.07030000
    66  H          0.19900000       0.64030000       0.92970000
    67  C          0.66783000       0.38412000       0.95754140
    68  C          0.33217000       0.61588000       0.04245860
    69  H          0.62100000       0.30070000       0.94060000
    70  H          0.37900000       0.69930000       0.05940000
    71  C          0.51963000       0.42212000       0.81866140
    72  C          0.48037000       0.57788000       0.18133860
    73  O          0.37492000       0.35754160       0.81959900
    74  O          0.62508000       0.64245840       0.18040100
    75  H          0.31430000       0.32420000       0.77091100
    76  H          0.68570000       0.67580000       0.22908900
    77  O          0.57212000       0.43894150       0.75881900
    78  O          0.42788000       0.56105850       0.24118100
    79  N          0.65414000       0.69142000       0.87994140
    80  N          0.34586000       0.30858000       0.12005860
    81  O          0.76664000       0.77612000       0.88521160
    82  O          0.23336000       0.22388000       0.11478840
    83  O          0.50553000       0.68320170       0.83615120
    84  O          0.49447000       0.31679830       0.16384880
    85  N          0.96543000       0.57623000       0.14153130
    86  N          0.03457000       0.42377000       0.85846870
    87  O          0.03463000       0.68402000       0.16014110
    88  O          0.96537000       0.31598000       0.83985890
    89  O         -0.01107000       0.49502000       0.18579110
    90  O          0.01107000       0.50498000       0.81420890
    91  C          0.14803000       0.08380190       0.74809120
    92  C          0.85197000       0.91619810       0.25190880
    93  C          0.32053000       0.05232000       0.77636120
    94  C          0.67947000       0.94768000       0.22363880
    95  C          0.37073000      -0.00702000       0.84341130
    96  C          0.62927000       0.00702000       0.15658870
    97  H          0.48750000       0.97230000       0.86090000
    98  H          0.51250000       0.02770000       0.13910000
    99  C          0.24043000       0.96548000       0.88352120
   100  C          0.75957000       0.03452000       0.11647880
   101  C          0.06583000      -0.00882000       0.85740140
   102  C          0.93417000       0.00882000       0.14259860
   103  H         -0.02020000       0.97010000       0.88510000
   104  H          0.02020000       0.02990000       0.11490000
   105  C          0.02193000       0.04922000       0.78911140
   106  C         -0.02193000       0.95078000       0.21088860
   107  H          0.90370000       0.06550000       0.77000000
   108  H          0.09630000       0.93450000       0.23000000
   109  C          0.09023000       0.16192000       0.68030140
   110  C          0.90977000       0.83808000       0.31969860
   111  O          0.18512000       0.26544140       0.68556800
   112  O          0.81488000       0.73455860       0.31443200
   113  O          0.95317000       0.12602160       0.62871110
   114  O          0.04683000       0.87397840       0.37128890
   115  N          0.46013000       0.07872000       0.73280150
   116  N          0.53987000       0.92128000       0.26719850
   117  O          0.61033000       0.10673000       0.77403150
   118  O          0.38967000       0.89327000       0.22596850
   119  O          0.41553000       0.06979190       0.65888120
   120  O          0.58447000       0.93020810       0.34111880
   121  N          0.29184000       0.90611810       0.95797130
   122  N          0.70816000       0.09388190       0.04202870
   123  O          0.44003000       0.86659830       0.97303110
   124  O          0.55997000       0.13340170       0.02696890
   125  O          0.18463000       0.89988000      -0.00012880
   126  O          0.81537000       0.10012000       0.00012880
