data_AFORIY02
_symmetry_space_group_name_H-M    'P1'
_symmetry_Int_Tables_number       1
loop_
_symmetry_equiv_pos_site_id
_symmetry_equiv_pos_as_xyz
1 x,y,z
_cell_length_a                   14.920617
_cell_length_b                   6.75487
_cell_length_c                   26.0053
_cell_angle_alpha                90.0
_cell_angle_beta                 95.70211
_cell_angle_gamma                90.0
loop_
_atom_site_label
_atom_site_type_symbol
_atom_site_fract_x
_atom_site_fract_y
_atom_site_fract_z
     1  C          0.11262000       0.67154000       0.76275140
     2  C          0.38738000       0.17154000       0.73724860
     3  C          0.88738000       0.32846000       0.23724860
     4  C          0.61262000       0.82846000       0.26275140
     5  H          0.09380000       0.67180000       0.79580000
     6  H          0.40620000       0.17180000       0.70420000
     7  H          0.90620000       0.32820000       0.20420000
     8  H          0.59380000       0.82820000       0.29580000
     9  C          0.05002000       0.67264000       0.72115150
    10  C          0.44998000       0.17264000       0.77884850
    11  C          0.94998000       0.32736000       0.27884850
    12  C          0.55002000       0.82736000       0.22115150
    13  H          0.98900000       0.67320000       0.72590000
    14  H          0.51100000       0.17320000       0.77410000
    15  H          0.01100000       0.32680000       0.27410000
    16  H          0.48900000       0.82680000       0.22590000
    17  C          0.07703000       0.67304000       0.67119150
    18  C          0.42297000       0.17304000       0.82880850
    19  C          0.92297000       0.32696000       0.32880850
    20  C          0.57703000       0.82696000       0.17119150
    21  H          0.03370000       0.67330000       0.64290000
    22  H          0.46630000       0.17330000       0.85710000
    23  H          0.96630000       0.32670000       0.35710000
    24  H          0.53370000       0.82670000       0.14290000
    25  C          0.16572000       0.67294000       0.66355140
    26  C          0.33428000       0.17294000       0.83644860
    27  C          0.83428000       0.32706000       0.33644860
    28  C          0.66572000       0.82706000       0.16355140
    29  H          0.18290000       0.67500000       0.63010000
    30  H          0.31710000       0.17500000       0.86990000
    31  H          0.81710000       0.32500000       0.36990000
    32  H          0.68290000       0.82500000       0.13010000
    33  C          0.47662000       0.66175000       0.72571150
    34  C          0.02338000       0.16175000       0.77428850
    35  C          0.52338000       0.33825000       0.27428850
    36  C          0.97662000       0.83825000       0.22571150
    37  H          0.48990000       0.65630000       0.69150000
    38  H          0.01010000       0.15630000       0.80850000
    39  H          0.51010000       0.34370000       0.30850000
    40  H         -0.01010000       0.84370000       0.19150000
    41  C          0.54443000       0.66375000       0.76477170
    42  C          0.95557000       0.16375000       0.73522830
    43  C          0.45557000       0.33625000       0.23522830
    44  C          0.04443000       0.83625000       0.26477170
    45  H          0.60400000       0.66100000       0.75700000
    46  H          0.89600000       0.16100000       0.74300000
    47  H          0.39600000       0.33900000       0.24300000
    48  H          0.10400000       0.83900000       0.25700000
    49  C          0.52582000       0.66995000       0.81623160
    50  C          0.97418000       0.16995000       0.68376840
    51  C          0.47418000       0.33005000       0.18376840
    52  C          0.02582000       0.83005000       0.31623160
    53  H          0.57290000       0.67260000       0.84250000
    54  H          0.92710000       0.17260000       0.65750000
    55  H          0.42710000       0.32740000       0.15750000
    56  H          0.07290000       0.82740000       0.34250000
    57  C          0.43892000       0.67214000       0.82827140
    58  C          0.06108000       0.17214000       0.67172860
    59  C          0.56108000       0.32786000       0.17172860
    60  C          0.93892000       0.82786000       0.32827140
    61  H          0.42740000       0.67500000       0.86270000
    62  H          0.07260000       0.17500000       0.63730000
    63  H          0.57260000       0.32500000       0.13730000
    64  H          0.92740000       0.82500000       0.36270000
    65  C          0.27442000       0.66774000       0.79899130
    66  C          0.22558000       0.16774000       0.70100870
    67  C          0.72558000       0.33226000       0.20100870
    68  C          0.77442000       0.83226000       0.29899130
    69  N          0.31977190       0.66783000       0.69814110
    70  N          0.18022810       0.16783000       0.80185890
    71  N          0.68022810       0.33217000       0.30185890
    72  N          0.81977190       0.83217000       0.19814110
    73  H          0.33360000       0.66670000       0.66680000
    74  H          0.16640000       0.16670000       0.83320000
    75  H          0.66640000       0.33330000       0.33320000
    76  H          0.83360000       0.83330000       0.16680000
    77  C          0.20522000       0.66984000       0.75680130
    78  C          0.29478000       0.16984000       0.74319870
    79  C          0.79478000       0.33016000       0.24319870
    80  C          0.70522000       0.83016000       0.25680130
    81  C          0.23212000       0.66954000       0.70636130
    82  C          0.26788000       0.16954000       0.79363870
    83  C          0.76788000       0.33046000       0.29363870
    84  C          0.73212000       0.83046000       0.20636130
    85  C          0.36612000       0.67014000       0.78893130
    86  C          0.13388000       0.17014000       0.71106870
    87  C          0.63388000       0.32986000       0.21106870
    88  C          0.86612000       0.82986000       0.28893130
    89  C          0.38702000       0.66764000       0.73708130
    90  C          0.11298000       0.16764000       0.76291870
    91  C          0.61298000       0.33236000       0.26291870
    92  C          0.88702000       0.83236000       0.23708130
    93  N          0.25187190       0.66224000       0.84747110
    94  N          0.24812810       0.16224000       0.65252890
    95  N          0.74812810       0.33776000       0.15252890
    96  N          0.75187190       0.83776000       0.34747110
    97  H          0.29320000       0.66020000       0.87300000
    98  H          0.20680000       0.16020000       0.62700000
    99  H          0.70680000       0.33980000       0.12700000
   100  H          0.79320000       0.83980000       0.37300000
   101  H          0.19610000       0.66080000       0.85310000
   102  H          0.30390000       0.16080000       0.64690000
   103  H          0.80390000       0.33920000       0.14690000
   104  H          0.69610000       0.83920000       0.35310000
   105  C          0.56912000       0.93516000       0.61276130
   106  C          0.93088000       0.43516000       0.88723870
   107  C          0.43088000       0.06484000       0.38723870
   108  C          0.06912000       0.56484000       0.11276130
   109  C          0.63922000       0.96616000       0.65169130
   110  C          0.86078000       0.46616000       0.84830870
   111  C          0.36078000       0.03384000       0.34830870
   112  C          0.13922000       0.53384000       0.15169130
   113  C          0.70672000       0.83135000       0.66244140
   114  C          0.79328000       0.33135000       0.83755860
   115  C          0.29328000       0.16865000       0.33755860
   116  C          0.20672000       0.66865000       0.16244140
   117  H          0.75270000       0.85470000       0.68860000
   118  H          0.74730000       0.35470000       0.81140000
   119  H          0.24730000       0.14530000       0.31140000
   120  H          0.25270000       0.64530000       0.18860000
   121  C          0.70502000       0.66175000       0.63386140
   122  C          0.79498000       0.16175000       0.86613860
   123  C          0.29498000       0.33825000       0.36613860
   124  C          0.20502000       0.83825000       0.13386140
   125  C          0.63702000       0.62035000       0.59623130
   126  C          0.86298000       0.12035000       0.90376870
   127  C          0.36298000       0.37965000       0.40376870
   128  C          0.13702000       0.87965000       0.09623130
   129  H          0.63620000       0.50170000       0.57810000
   130  H          0.86380000       0.00170000       0.92190000
   131  H          0.36380000       0.49830000       0.42190000
   132  H          0.13620000      -0.00170000       0.07810000
   133  C          0.56992000       0.75855000       0.58582130
   134  C          0.93008000       0.25855000       0.91417870
   135  C          0.43008000       0.24145000       0.41417870
   136  C          0.06992000       0.74145000       0.08582130
   137  H          0.52380000       0.73260000       0.56000000
   138  H          0.97620000       0.23260000       0.94000000
   139  H          0.47620000       0.26740000       0.44000000
   140  H          0.02380000       0.76740000       0.06000000
   141  C          0.49142000       0.07335000       0.59833140
   142  C          0.00858000       0.57335000       0.90166860
   143  C          0.50858000       0.92665000       0.40166860
   144  C         -0.00858000       0.42665000       0.09833140
   145  O          0.50797170       0.19904000       0.56375110
   146  O         -0.00797170       0.69904000       0.93624890
   147  O          0.49202830       0.80096000       0.43624890
   148  O          0.00797170       0.30096000       0.06375110
   149  H          0.46720000       0.28050000       0.55351700
   150  H          0.03280000       0.78050000       0.94648300
   151  H          0.53280000       0.71950000       0.44648300
   152  H          0.96720000       0.21950000       0.05351700
   153  O          0.42030170       0.04873000       0.61662100
   154  O          0.07969830       0.54873000       0.88337900
   155  O          0.57969830       0.95127000       0.38337900
   156  O          0.92030170       0.45127000       0.11662100
   157  N          0.64162000       0.14834000       0.68235130
   158  N          0.85838000       0.64834000       0.81764870
   159  N          0.35838000       0.85166000       0.31764870
   160  N          0.14162000       0.35166000       0.18235130
   161  O          0.58073190       0.26544000       0.67444110
   162  O          0.91926810       0.76544000       0.82555890
   163  O          0.41926810       0.73456000       0.32555890
   164  O          0.08073190       0.23456000       0.17444110
   165  O          0.70612000       0.17474000       0.71448130
   166  O          0.79388000       0.67474000       0.78551870
   167  O          0.29388000       0.82526000       0.28551870
   168  O          0.20612000       0.32526000       0.21448130
   169  N          0.77852000       0.51825000       0.64368140
   170  N          0.72148000       0.01825000       0.85631860
   171  N          0.22148000       0.48175000       0.35631860
   172  N          0.27852000      -0.01825000       0.14368140
   173  O          0.83892000       0.55866000       0.67656130
   174  O          0.66108000       0.05866000       0.82343870
   175  O          0.16108000       0.44134000       0.32343870
   176  O          0.33892000       0.94134000       0.17656130
   177  O          0.77585190       0.36666000       0.61801120
   178  O          0.72414810       0.86666000       0.88198880
   179  O          0.22414810       0.63334000       0.38198880
   180  O          0.27585190       0.13334000       0.11801120
   181  C          0.27782000       0.66295000       0.52320130
   182  C          0.22218000       0.16295000       0.97679870
   183  C          0.72218000       0.33705000       0.47679870
   184  C          0.77782000       0.83705000       0.02320130
   185  C          0.18552000       0.63244000       0.51700120
   186  C          0.31448000       0.13244000       0.98299880
   187  C          0.81448000       0.36756000       0.48299880
   188  C          0.68552000       0.86756000       0.01700120
   189  C          0.12562000       0.76295000       0.49169130
   190  C          0.37438000       0.26295000       0.00830870
   191  C          0.87438000       0.23705000       0.50830870
   192  C          0.62562000       0.73705000       0.99169130
   193  H          0.06410000       0.73780000       0.48780000
   194  H          0.43590000       0.23780000       0.01220000
   195  H          0.93590000       0.26220000       0.51220000
   196  H          0.56410000       0.76220000       0.98780000
   197  C          0.16072000       0.93055000       0.47252120
   198  C          0.33928000       0.43055000       0.02747880
   199  C          0.83928000       0.06945000       0.52747880
   200  C          0.66072000       0.56945000       0.97252120
   201  C          0.25072000       0.97045000       0.47719140
   202  C          0.24928000       0.47045000       0.02280860
   203  C          0.74928000       0.02955000       0.52280860
   204  C          0.75072000       0.52955000       0.97719140
   205  H          0.27250000       0.08640000       0.46370000
   206  H          0.22750000       0.58640000       0.03630000
   207  H          0.72750000       0.91360000       0.53630000
   208  H          0.77250000       0.41360000       0.96370000
   209  C          0.30872000       0.83525000       0.50233140
   210  C          0.19128000       0.33525000      -0.00233140
   211  C          0.69128000       0.16475000       0.49766860
   212  C          0.80872000       0.66475000       0.00233140
   213  H          0.37030000       0.86050000       0.50530000
   214  H          0.12970000       0.36050000      -0.00530000
   215  H          0.62970000       0.13950000       0.49470000
   216  H          0.87030000       0.63950000       0.00530000
   217  C          0.34542000       0.53015000       0.55335140
   218  C          0.15458000       0.03015000       0.94664860
   219  C          0.65458000       0.46985000       0.44664860
   220  C          0.84542000       0.96985000       0.05335140
   221  O          0.39226170       0.42644000       0.52571900
   222  O          0.10773830       0.92644000       0.97428100
   223  O          0.60773830       0.57356000       0.47428100
   224  O          0.89226170       0.07356000       0.02571900
   225  O          0.35232170       0.53684000       0.60053100
   226  O          0.14767830       0.03684000       0.89946900
   227  O          0.64767830       0.46316000       0.39946900
   228  O          0.85232170       0.96316000       0.10053100
   229  N          0.14742000       0.45424000       0.53864110
   230  N          0.35258000       0.95424000       0.96135890
   231  N          0.85258000       0.54576000       0.46135890
   232  N          0.64742000       0.04576000       0.03864110
   233  O          0.19630190       0.31093000       0.54766100
   234  O          0.30369810       0.81093000       0.95233900
   235  O          0.80369810       0.68907000       0.45233900
   236  O          0.69630190       0.18907000       0.04766100
   237  O          0.06822000       0.45774000       0.54732120
   238  O          0.43178000       0.95774000       0.95267880
   239  O          0.93178000       0.54226000       0.45267880
   240  O          0.56822000       0.04226000       0.04732120
   241  N          0.09782000       0.07295000       0.44563120
   242  N          0.40218000       0.57295000       0.05436880
   243  N          0.90218000       0.92705000       0.55436880
   244  N          0.59782000       0.42705000       0.94563120
   245  O          0.01762000       0.03154000       0.44062110
   246  O          0.48238000       0.53154000       0.05937890
   247  O          0.98238000       0.96846000       0.55937890
   248  O          0.51762000       0.46846000       0.94062110
   249  O          0.12822000       0.22784000       0.43060130
   250  O          0.37178000       0.72784000       0.06939870
   251  O          0.87178000       0.77216000       0.56939870
   252  O          0.62822000       0.27216000       0.93060130
