data_ALOCOW14
_symmetry_space_group_name_H-M    'P1'
_symmetry_Int_Tables_number       1
loop_
_symmetry_equiv_pos_site_id
_symmetry_equiv_pos_as_xyz
1 x,y,z
_cell_length_a                   8.65463
_cell_length_b                   11.47123
_cell_length_c                   9.87843
_cell_angle_alpha                90.0
_cell_angle_beta                 114.30101
_cell_angle_gamma                90.0
loop_
_atom_site_label
_atom_site_type_symbol
_atom_site_fract_x
_atom_site_fract_y
_atom_site_fract_z
     1  Br         0.77117300       0.35605200       0.22732300
     2  Br         0.72882700       0.85605200       0.27267700
     3  Br         0.22882700       0.64394800       0.77267700
     4  Br         0.27117300       0.14394800       0.72732300
     5  N          0.57882000       0.77198150       0.64198170
     6  N          0.92118000       0.27198150       0.85801830
     7  N          0.42118000       0.22801850       0.35801830
     8  N          0.07882000       0.72801850       0.14198170
     9  N          0.36452000       0.80738170       0.41945190
    10  N          0.13548000       0.30738170       0.08054810
    11  N          0.63548000       0.19261830       0.58054810
    12  N          0.86452000       0.69261830       0.91945190
    13  C          0.50312000       0.74241160       0.50422000
    14  C         -0.00312000       0.24241160      -0.00422000
    15  C          0.49688000       0.25758840       0.49578000
    16  C          0.00312000       0.75758840       0.00422000
    17  C          0.54783000       0.53913190       0.22262000
    18  C          0.95217000       0.03913190       0.27738000
    19  C          0.45217000       0.46086810       0.77738000
    20  C          0.04783000       0.96086810       0.72262000
    21  H          0.49440000       0.52390000       0.11900000
    22  H          0.00560000       0.02390000       0.38100000
    23  H          0.50560000       0.47610000       0.88100000
    24  H         -0.00560000       0.97610000       0.61900000
    25  C          0.56482000       0.64918160       0.43672000
    26  C          0.93518000       0.14918160       0.06328000
    27  C          0.43518000       0.35081840       0.56328000
    28  C          0.06482000       0.85081840       0.93672000
    29  C          0.68673000       0.47525170       0.31222000
    30  C          0.81327000       0.97525170       0.18778000
    31  C          0.31327000       0.52474830       0.68778000
    32  C          0.18673000       0.02474830       0.81222000
    33  C          0.48662000       0.62563180       0.28472000
    34  C          0.01338000       0.12563180       0.21528000
    35  C          0.51338000       0.37436820       0.71528000
    36  C         -0.01338000       0.87436820       0.78472000
    37  H          0.39020000       0.66960000       0.22320000
    38  H          0.10980000       0.16960000       0.27680000
    39  H          0.60980000       0.33040000       0.77680000
    40  H          0.89020000       0.83040000       0.72320000
    41  C          0.76653000       0.49612000       0.46282000
    42  C          0.73347000      -0.00388000       0.03718000
    43  C          0.23347000       0.50388000       0.53718000
    44  C          0.26653000       0.00388000       0.96282000
    45  H          0.86210000       0.45110000       0.52350000
    46  H          0.63790000       0.95110000       0.97650000
    47  H          0.13790000       0.54890000       0.47650000
    48  H          0.36210000       0.04890000       0.02350000
    49  C          0.70573000       0.58302000       0.52422000
    50  C          0.79427000       0.08302000       0.97578000
    51  C          0.29427000       0.41698000       0.47578000
    52  C          0.20573000       0.91698000       0.02422000
    53  H          0.76070000       0.59800000       0.62780000
    54  H          0.73930000       0.09800000       0.87220000
    55  H          0.23930000       0.40200000       0.37220000
    56  H          0.26070000       0.90200000       0.12780000
    57  C          0.48283000       0.87087190       0.66372000
    58  C          0.01717000       0.37087190       0.83628000
    59  C          0.51717000       0.12912810       0.33628000
    60  C         -0.01717000       0.62912810       0.16372000
    61  H          0.55080000       0.94330000       0.68350000
    62  H          0.94920000       0.44330000       0.81650000
    63  H          0.44920000       0.05670000       0.31650000
    64  H          0.05080000       0.55670000       0.18350000
    65  H          0.45260000       0.85590000       0.74850000
    66  H          0.04740000       0.35590000       0.75150000
    67  H          0.54740000       0.14410000       0.25150000
    68  H          0.95260000       0.64410000       0.24850000
    69  C          0.32173000       0.88212000       0.51822000
    70  C          0.17827000       0.38212000       0.98178000
    71  C          0.67827000       0.11788000       0.48178000
    72  C          0.82173000       0.61788000       0.01822000
    73  H          0.22020000       0.85330000       0.53020000
    74  H          0.27980000       0.35330000       0.96980000
    75  H          0.77980000       0.14670000       0.46980000
    76  H          0.72020000       0.64670000       0.03020000
    77  H          0.30250000       0.96360000       0.48220000
    78  H          0.19750000       0.46360000       0.01780000
    79  H          0.69750000       0.03640000       0.51780000
    80  H          0.80250000       0.53640000       0.98220000
    81  H          0.29330000       0.78320000       0.34930000
    82  H          0.20670000       0.28320000       0.15070000
    83  H          0.70670000       0.21680000       0.65070000
    84  H          0.79330000       0.71680000       0.84930000
