data_ALOCOW04
_symmetry_space_group_name_H-M    'P1'
_symmetry_Int_Tables_number       1
loop_
_symmetry_equiv_pos_site_id
_symmetry_equiv_pos_as_xyz
1 x,y,z
_cell_length_a                   4.87212
_cell_length_b                   18.08058
_cell_length_c                   10.16515
_cell_angle_alpha                90.0
_cell_angle_beta                 94.8172
_cell_angle_gamma                90.0
loop_
_atom_site_label
_atom_site_type_symbol
_atom_site_fract_x
_atom_site_fract_y
_atom_site_fract_z
     1  Br         0.03632110       0.77963300       0.49383800
     2  Br         0.03632110       0.22036700      -0.00616200
     3  Br         0.53632110       0.27963300       0.49383800
     4  Br         0.53632110       0.72036700      -0.00616200
     5  N          0.16681000       0.48942000       0.61514000
     6  N          0.16681000       0.51058000       0.11514000
     7  N          0.66681000       0.98942000       0.61514000
     8  N          0.66681000       0.01058000       0.11514000
     9  N          0.17201100       0.47603000       0.39665000
    10  N          0.17201100       0.52397000       0.89665000
    11  N          0.67201100       0.97603000       0.39665000
    12  N          0.67201100       0.02397000       0.89665000
    13  C          0.44271000       0.57773000       0.50195000
    14  C          0.44271000       0.42227000       0.00195000
    15  C          0.94271000       0.07773000       0.50195000
    16  C          0.94271000       0.92227000       0.00195000
    17  C          0.25431000       0.51433000       0.50614000
    18  C          0.25431000       0.48567000       0.00614000
    19  C          0.75431000       0.01433000       0.50614000
    20  C          0.75431000       0.98567000       0.00614000
    21  C          0.96478700       0.42253000       0.42675000
    22  C          0.96478700       0.57747000       0.92675000
    23  C          0.46478700       0.92253000       0.42675000
    24  C          0.46478700       0.07747000       0.92675000
    25  H          0.00890000       0.37290000       0.39580000
    26  H          0.00890000       0.62710000       0.89580000
    27  H          0.50890000       0.87290000       0.39580000
    28  H          0.50890000       0.12710000       0.89580000
    29  H          0.78130000       0.43680000       0.38830000
    30  H          0.78130000       0.56320000       0.88830000
    31  H          0.28130000       0.93680000       0.38830000
    32  H          0.28130000       0.06320000       0.88830000
    33  C          0.71871300       0.66013000       0.38235000
    34  C          0.71871300       0.33987000       0.88235000
    35  C          0.21871300       0.16013000       0.38235000
    36  C          0.21871300       0.83987000       0.88235000
    37  H          0.78770000       0.67470000       0.30260000
    38  H          0.78770000       0.32530000       0.80260000
    39  H          0.28770000       0.17470000       0.30260000
    40  H          0.28770000       0.82530000       0.80260000
    41  C          0.79501100       0.69743000       0.49715000
    42  C          0.79501100       0.30257000      -0.00285000
    43  C          0.29501100       0.19743000       0.49715000
    44  C          0.29501100       0.80257000      -0.00285000
    45  C          0.51381300       0.61744000       0.61566000
    46  C          0.51381300       0.38256000       0.11566000
    47  C          0.01381300       0.11744000       0.61566000
    48  C          0.01381300       0.88256000       0.11566000
    49  H          0.43830000       0.60420000       0.69440000
    50  H          0.43830000       0.39580000       0.19440000
    51  H          0.93830000       0.10420000       0.69440000
    52  H          0.93830000       0.89580000       0.19440000
    53  C          0.53871500       0.60054000       0.38466000
    54  C          0.53871500       0.39946000       0.88466000
    55  C          0.03871500       0.10054000       0.38466000
    56  C          0.03871500       0.89946000       0.88466000
    57  H          0.48200000       0.57570000       0.30580000
    58  H          0.48200000       0.42430000       0.80580000
    59  H         -0.01800000       0.07570000       0.30580000
    60  H         -0.01800000       0.92430000       0.80580000
    61  C          0.69671300       0.67713000       0.61535000
    62  C          0.69671300       0.32287000       0.11535000
    63  C          0.19671300       0.17713000       0.61535000
    64  C          0.19671300       0.82287000       0.11535000
    65  H          0.75130000       0.70270000       0.69370000
    66  H          0.75130000       0.29730000       0.19370000
    67  H          0.25130000       0.20270000       0.69370000
    68  H          0.25130000       0.79730000       0.19370000
    69  C         -0.01421300       0.42664000       0.57836000
    70  C         -0.01421300       0.57336000       0.07836000
    71  C          0.48578700       0.92664000       0.57836000
    72  C          0.48578700       0.07336000       0.07836000
    73  H          0.80330000       0.43430000       0.60990000
    74  H          0.80330000       0.56570000       0.10990000
    75  H          0.30330000       0.93430000       0.60990000
    76  H          0.30330000       0.06570000       0.10990000
    77  H          0.06350000       0.38070000       0.61680000
    78  H          0.06350000       0.61930000       0.11680000
    79  H          0.56350000       0.88070000       0.61680000
    80  H          0.56350000       0.11930000       0.11680000
    81  H          0.18310000       0.48830000       0.32160000
    82  H          0.18310000       0.51170000       0.82160000
    83  H          0.68310000       0.98830000       0.32160000
    84  H          0.68310000       0.01170000       0.82160000
