data_ALOCOW
_symmetry_space_group_name_H-M    'P1'
_symmetry_Int_Tables_number       1
loop_
_symmetry_equiv_pos_site_id
_symmetry_equiv_pos_as_xyz
1 x,y,z
_cell_length_a                   6.41627
_cell_length_b                   13.270115
_cell_length_c                   10.158311
_cell_angle_alpha                90.0
_cell_angle_beta                 97.6064
_cell_angle_gamma                90.0
loop_
_atom_site_label
_atom_site_type_symbol
_atom_site_fract_x
_atom_site_fract_y
_atom_site_fract_z
     1  Br         0.03378800       0.78929200       0.50028700
     2  Br         0.03378800       0.21070800       0.00028700
     3  Br         0.53378800       0.28929200       0.50028700
     4  Br         0.53378800       0.71070800       0.00028700
     5  N          0.17206000       0.50353000       0.61313000
     6  N          0.17206000       0.49647000       0.11313000
     7  N          0.67206000       0.00353000       0.61313000
     8  N          0.67206000      -0.00353000       0.11313000
     9  C          0.52678000       0.63614000       0.61785000
    10  C          0.52678000       0.36386000       0.11785000
    11  C          0.02678000       0.13614000       0.61785000
    12  C          0.02678000       0.86386000       0.11785000
    13  H          0.46570000       0.62760000       0.69730000
    14  H          0.46570000       0.37240000       0.19730000
    15  H          0.96570000       0.12760000       0.69730000
    16  H          0.96570000       0.87240000       0.19730000
    17  N          0.12716000       0.49813000       0.39024000
    18  N          0.12716000       0.50187000       0.89024000
    19  N          0.62716000      -0.00187000       0.39024000
    20  N          0.62716000       0.00187000       0.89024000
    21  C         -0.02288000       0.44554000       0.57514000
    22  C         -0.02288000       0.55446000       0.07514000
    23  C          0.47712000       0.94554000       0.57514000
    24  C          0.47712000       0.05446000       0.07514000
    25  H          0.85330000       0.48400000       0.59560000
    26  H          0.85330000       0.51600000       0.09560000
    27  H          0.35330000       0.98400000       0.59560000
    28  H          0.35330000       0.01600000       0.09560000
    29  H         -0.01740000       0.38050000       0.62330000
    30  H         -0.01740000       0.61950000       0.12330000
    31  H          0.48260000       0.88050000       0.62330000
    32  H          0.48260000       0.11950000       0.12330000
    33  C          0.70117000       0.66363000       0.38444000
    34  C          0.70117000       0.33637000       0.88444000
    35  C          0.20117000       0.16363000       0.38444000
    36  C          0.20117000       0.83637000       0.88444000
    37  H          0.76140000       0.67340000       0.30480000
    38  H          0.76140000       0.32660000       0.80480000
    39  H          0.26140000       0.17340000       0.30480000
    40  H          0.26140000       0.82660000       0.80480000
    41  C          0.96553000       0.42773000       0.42314000
    42  C          0.96553000       0.57227000       0.92314000
    43  C          0.46553000       0.92773000       0.42314000
    44  C          0.46553000       0.07227000       0.92314000
    45  H          0.00040000       0.35720000       0.40280000
    46  H          0.00040000       0.64280000       0.90280000
    47  H          0.50040000       0.85720000       0.40280000
    48  H          0.50040000       0.14280000       0.90280000
    49  H          0.82510000       0.44490000       0.37580000
    50  H          0.82510000       0.55510000       0.87580000
    51  H          0.32510000       0.94490000       0.37580000
    52  H          0.32510000       0.05510000       0.87580000
    53  C          0.43357000       0.58983000       0.50144000
    54  C          0.43357000       0.41017000       0.00144000
    55  C          0.93357000       0.08983000       0.50144000
    56  C          0.93357000       0.91017000       0.00144000
    57  C          0.70687000       0.69433000       0.61954000
    58  C          0.70687000       0.30567000       0.11954000
    59  C          0.20687000       0.19433000       0.61954000
    60  C          0.20687000       0.80567000       0.11954000
    61  H          0.77050000       0.72480000       0.69950000
    62  H          0.77050000       0.27520000       0.19950000
    63  H          0.27050000       0.22480000       0.69950000
    64  H          0.27050000       0.77520000       0.19950000
    65  C          0.51988000       0.60514000       0.38385000
    66  C          0.51988000       0.39486000       0.88385000
    67  C          0.01988000       0.10514000       0.38385000
    68  C          0.01988000       0.89486000       0.88385000
    69  H          0.45530000       0.57570000       0.30330000
    70  H          0.45530000       0.42430000       0.80330000
    71  H          0.95530000       0.07570000       0.30330000
    72  H          0.95530000       0.92430000       0.80330000
    73  C          0.24176000       0.52813000       0.50404000
    74  C          0.24176000       0.47187000       0.00404000
    75  C          0.74176000       0.02813000       0.50404000
    76  C          0.74176000       0.97187000       0.00404000
    77  C          0.79187000       0.70703000       0.50184000
    78  C          0.79187000       0.29297000       0.00184000
    79  C          0.29187000       0.20703000       0.50184000
    80  C          0.29187000       0.79297000       0.00184000
    81  H          0.16790000       0.49540000       0.31460000
    82  H          0.16790000       0.50460000       0.81460000
    83  H          0.66790000      -0.00460000       0.31460000
    84  H          0.66790000       0.00460000       0.81460000
