data_AMBACO03
_symmetry_space_group_name_H-M    'P1'
_symmetry_Int_Tables_number       1
loop_
_symmetry_equiv_pos_site_id
_symmetry_equiv_pos_as_xyz
1 x,y,z
_cell_length_a                   15.9734
_cell_length_b                   11.6058
_cell_length_c                   7.1625
_cell_angle_alpha                90.0
_cell_angle_beta                 90.0
_cell_angle_gamma                90.0
loop_
_atom_site_label
_atom_site_type_symbol
_atom_site_fract_x
_atom_site_fract_y
_atom_site_fract_z
     1  C          0.44070000       0.00540000       0.26140000
     2  C          0.05930000      -0.00540000       0.76140000
     3  C          0.94070000       0.49460000       0.73860000
     4  C          0.55930000       0.50540000       0.23860000
     5  C          0.55930000      -0.00540000       0.73860000
     6  C          0.94070000       0.00540000       0.23860000
     7  C          0.05930000       0.50540000       0.26140000
     8  C          0.44070000       0.49460000       0.76140000
     9  C          0.39640000       0.01570000       0.08660000
    10  C          0.10360000       0.98430000       0.58660000
    11  C          0.89640000       0.48430000       0.91340000
    12  C          0.60360000       0.51570000       0.41340000
    13  C          0.60360000       0.98430000       0.91340000
    14  C          0.89640000       0.01570000       0.41340000
    15  C          0.10360000       0.51570000       0.08660000
    16  C          0.39640000       0.48430000       0.58660000
    17  C          0.36380000       0.12090000       0.03010000
    18  C          0.13620000       0.87910000       0.53010000
    19  C          0.86380000       0.37910000       0.96990000
    20  C          0.63620000       0.62090000       0.46990000
    21  C          0.63620000       0.87910000       0.96990000
    22  C          0.86380000       0.12090000       0.46990000
    23  C          0.13620000       0.62090000       0.03010000
    24  C          0.36380000       0.37910000       0.53010000
    25  C          0.31880000       0.13310000       0.86950000
    26  C          0.18120000       0.86690000       0.36950000
    27  C          0.81880000       0.36690000       0.13050000
    28  C          0.68120000       0.63310000       0.63050000
    29  C          0.68120000       0.86690000       0.13050000
    30  C          0.81880000       0.13310000       0.63050000
    31  C          0.18120000       0.63310000       0.86950000
    32  C          0.31880000       0.36690000       0.36950000
    33  C          0.30850000       0.03790000       0.75580000
    34  C          0.19150000       0.96210000       0.25580000
    35  C          0.80850000       0.46210000       0.24420000
    36  C          0.69150000       0.53790000       0.74420000
    37  C          0.69150000       0.96210000       0.24420000
    38  C          0.80850000       0.03790000       0.74420000
    39  C          0.19150000       0.53790000       0.75580000
    40  C          0.30850000       0.46210000       0.25580000
    41  C          0.34010000       0.93380000       0.80320000
    42  C          0.15990000       0.06620000       0.30320000
    43  C          0.84010000       0.56620000       0.19680000
    44  C          0.65990000       0.43380000       0.69680000
    45  C          0.65990000       0.06620000       0.19680000
    46  C          0.84010000       0.93380000       0.69680000
    47  C          0.15990000       0.43380000       0.80320000
    48  C          0.34010000       0.56620000       0.30320000
    49  C          0.38510000       0.91910000       0.96690000
    50  C          0.11490000       0.08090000       0.46690000
    51  C          0.88510000       0.58090000       0.03310000
    52  C          0.61490000       0.41910000       0.53310000
    53  C          0.61490000       0.08090000       0.03310000
    54  C          0.88510000       0.91910000       0.53310000
    55  C          0.11490000       0.41910000       0.96690000
    56  C          0.38510000       0.58090000       0.46690000
    57  N          0.41390000       0.81390000       0.01510000
    58  N          0.08610000       0.18610000       0.51510000
    59  N          0.91390000       0.68610000      -0.01510000
    60  N          0.58610000       0.31390000       0.48490000
    61  N          0.58610000       0.18610000      -0.01510000
    62  N          0.91390000       0.81390000       0.48490000
    63  N          0.08610000       0.31390000       0.01510000
    64  N          0.41390000       0.68610000       0.51510000
    65  O          0.44570000       0.10410000       0.35650000
    66  O          0.05430000       0.89590000       0.85650000
    67  O          0.94570000       0.39590000       0.64350000
    68  O          0.55430000       0.60410000       0.14350000
    69  O          0.55430000       0.89590000       0.64350000
    70  O          0.94570000       0.10410000       0.14350000
    71  O          0.05430000       0.60410000       0.35650000
    72  O          0.44570000       0.39590000       0.85650000
    73  O          0.46900000       0.91660000       0.32720000
    74  O          0.03100000       0.08340000       0.82720000
    75  O          0.96900000       0.58340000       0.67280000
    76  O          0.53100000       0.41660000       0.17280000
    77  O          0.53100000       0.08340000       0.67280000
    78  O          0.96900000       0.91660000       0.17280000
    79  O          0.03100000       0.41660000       0.32720000
    80  O          0.46900000       0.58340000       0.82720000
    81  H          0.47100000       0.09300000       0.43600000
    82  H          0.02900000       0.90700000       0.93600000
    83  H          0.97100000       0.40700000       0.56400000
    84  H          0.52900000       0.59300000       0.06400000
    85  H          0.52900000       0.90700000       0.56400000
    86  H          0.97100000       0.09300000       0.06400000
    87  H          0.02900000       0.59300000       0.43600000
    88  H          0.47100000       0.40700000       0.93600000
    89  H          0.37500000       0.19000000       0.12200000
    90  H          0.12500000       0.81000000       0.62200000
    91  H          0.87500000       0.31000000       0.87800000
    92  H          0.62500000       0.69000000       0.37800000
    93  H          0.62500000       0.81000000       0.87800000
    94  H          0.87500000       0.19000000       0.37800000
    95  H          0.12500000       0.69000000       0.12200000
    96  H          0.37500000       0.31000000       0.62200000
    97  H          0.29300000       0.20900000       0.84200000
    98  H          0.20700000       0.79100000       0.34200000
    99  H          0.79300000       0.29100000       0.15800000
   100  H          0.70700000       0.70900000       0.65800000
   101  H          0.70700000       0.79100000       0.15800000
   102  H          0.79300000       0.20900000       0.65800000
   103  H          0.20700000       0.70900000       0.84200000
   104  H          0.29300000       0.29100000       0.34200000
   105  H          0.27600000       0.04000000       0.65100000
   106  H          0.22400000       0.96000000       0.15100000
   107  H          0.77600000       0.46000000       0.34900000
   108  H          0.72400000       0.54000000       0.84900000
   109  H          0.72400000       0.96000000       0.34900000
   110  H          0.77600000       0.04000000       0.84900000
   111  H          0.22400000       0.54000000       0.65100000
   112  H          0.27600000       0.46000000       0.15100000
   113  H          0.33100000       0.86400000       0.72500000
   114  H          0.16900000       0.13600000       0.22500000
   115  H          0.83100000       0.63600000       0.27500000
   116  H          0.66900000       0.36400000       0.77500000
   117  H          0.66900000       0.13600000       0.27500000
   118  H          0.83100000       0.86400000       0.77500000
   119  H          0.16900000       0.36400000       0.72500000
   120  H          0.33100000       0.63600000       0.22500000
   121  H          0.45500000       0.80300000       0.08800000
   122  H          0.04500000       0.19700000       0.58800000
   123  H          0.95500000       0.69700000       0.91200000
   124  H          0.54500000       0.30300000       0.41200000
   125  H          0.54500000       0.19700000       0.91200000
   126  H          0.95500000       0.80300000       0.41200000
   127  H          0.04500000       0.30300000       0.08800000
   128  H          0.45500000       0.69700000       0.58800000
   129  H          0.40900000       0.76700000       0.94600000
   130  H          0.09100000       0.23300000       0.44600000
   131  H          0.90900000       0.73300000       0.05400000
   132  H          0.59100000       0.26700000       0.55400000
   133  H          0.59100000       0.23300000       0.05400000
   134  H          0.90900000       0.76700000       0.55400000
   135  H          0.09100000       0.26700000       0.94600000
   136  H          0.40900000       0.73300000       0.44600000
