data_AMBACO06
_symmetry_space_group_name_H-M    'P1'
_symmetry_Int_Tables_number       1
loop_
_symmetry_equiv_pos_site_id
_symmetry_equiv_pos_as_xyz
1 x,y,z
_cell_length_a                   12.2266
_cell_length_b                   15.3365
_cell_length_c                   7.5603
_cell_angle_alpha                90.0
_cell_angle_beta                 152.565
_cell_angle_gamma                90.0
loop_
_atom_site_label
_atom_site_type_symbol
_atom_site_fract_x
_atom_site_fract_y
_atom_site_fract_z
     1  C          0.07450000       0.14090000       0.57310000
     2  C          0.42550000       0.64090000       0.42690000
     3  C          0.92550000       0.85910000       0.42690000
     4  C          0.57450000       0.35910000       0.57310000
     5  C          0.20990000       0.18150000       0.89800000
     6  C          0.29010000       0.68150000       0.10200000
     7  C          0.79010000       0.81850000       0.10200000
     8  C          0.70990000       0.31850000       0.89800000
     9  C          0.13660000       0.18200000      -0.03560000
    10  C          0.36340000       0.68200000       0.03560000
    11  C          0.86340000       0.81800000       0.03560000
    12  C          0.63660000       0.31800000      -0.03560000
    13  C          0.92640000       0.14240000       0.71370000
    14  C          0.57360000       0.64240000       0.28630000
    15  C          0.07360000       0.85760000       0.28630000
    16  C          0.42640000       0.35760000       0.71370000
    17  C          0.79180000       0.10160000       0.39510000
    18  C          0.70820000       0.60160000       0.60490000
    19  C          0.20820000       0.89840000       0.60490000
    20  C          0.29180000       0.39840000       0.39510000
    21  C          0.86050000       0.10100000       0.31590000
    22  C          0.63950000       0.60100000       0.68410000
    23  C          0.13950000       0.89900000       0.68410000
    24  C          0.36050000       0.39900000       0.31590000
    25  C          0.70730000       0.06010000      -0.03500000
    26  C          0.79270000       0.56010000       0.03500000
    27  C          0.29270000       0.93990000       0.03500000
    28  C          0.20730000       0.43990000      -0.03500000
    29  N          0.15230000       0.14300000       0.51250000
    30  N          0.34770000       0.64300000       0.48750000
    31  N          0.84770000       0.85700000       0.48750000
    32  N          0.65230000       0.35700000       0.51250000
    33  O          0.75240000       0.05230000       0.87130000
    34  O          0.74760000       0.55230000       0.12870000
    35  O          0.24760000       0.94770000       0.12870000
    36  O          0.25240000       0.44770000       0.87130000
    37  O          0.50400000       0.02930000       0.73770000
    38  O         -0.00400000       0.52930000       0.26230000
    39  O          0.49600000       0.97070000       0.26230000
    40  O          0.00400000       0.47070000       0.73770000
    41  H          0.36180000       0.21390000       0.08360000
    42  H          0.13820000       0.71390000       0.91640000
    43  H          0.63820000       0.78610000       0.91640000
    44  H          0.86180000       0.28610000       0.08360000
    45  H          0.22560000       0.21190000       0.19000000
    46  H          0.27440000       0.71190000       0.81000000
    47  H          0.77440000       0.78810000       0.81000000
    48  H          0.72560000       0.28810000       0.19000000
    49  H          0.87030000       0.14240000       0.75420000
    50  H          0.62970000       0.64240000       0.24580000
    51  H          0.12970000       0.85760000       0.24580000
    52  H          0.37030000       0.35760000       0.75420000
    53  H          0.64620000       0.06910000       0.21470000
    54  H          0.85380000       0.56910000       0.78530000
    55  H          0.35380000       0.93090000       0.78530000
    56  H          0.14620000       0.43090000       0.21470000
    57  H          0.29190000       0.15980000       0.69630000
    58  H          0.20810000       0.65980000       0.30370000
    59  H          0.70810000       0.84020000       0.30370000
    60  H          0.79190000       0.34020000       0.69630000
    61  H          0.06670000       0.10960000       0.31780000
    62  H          0.43330000       0.60960000       0.68220000
    63  H          0.93330000       0.89040000       0.68220000
    64  H          0.56670000       0.39040000       0.31780000
    65  H          0.40870000      -0.00110000       0.50980000
    66  H          0.09130000       0.49890000       0.49020000
    67  H          0.59130000       0.00110000       0.49020000
    68  H          0.90870000       0.50110000       0.50980000
