data_AMBACO01
_symmetry_space_group_name_H-M    'P1'
_symmetry_Int_Tables_number       1
loop_
_symmetry_equiv_pos_site_id
_symmetry_equiv_pos_as_xyz
1 x,y,z
_cell_length_a                   12.868
_cell_length_b                   10.772
_cell_length_c                   9.325
_cell_angle_alpha                90.0
_cell_angle_beta                 90.0
_cell_angle_gamma                90.0
loop_
_atom_site_label
_atom_site_type_symbol
_atom_site_fract_x
_atom_site_fract_y
_atom_site_fract_z
     1  C          0.13580000       0.08600000       0.20640000
     2  C          0.13580000       0.41400000       0.70640000
     3  C          0.63580000       0.58600000       0.29360000
     4  C          0.63580000       0.91400000       0.79360000
     5  C          0.17230000       0.03990000       0.33450000
     6  C          0.17230000       0.46010000       0.83450000
     7  C          0.67230000       0.53990000       0.16550000
     8  C          0.67230000       0.96010000       0.66550000
     9  C          0.17030000       0.91970000       0.37330000
    10  C          0.17030000       0.58030000       0.87330000
    11  C          0.67030000       0.41970000       0.12670000
    12  C          0.67030000       0.08030000       0.62670000
    13  C          0.13570000       0.83030000       0.26710000
    14  C          0.13570000       0.66970000       0.76710000
    15  C          0.63570000       0.33030000       0.23290000
    16  C          0.63570000       0.16970000       0.73290000
    17  C          0.10260000       0.87210000       0.13820000
    18  C          0.10260000       0.62790000       0.63820000
    19  C          0.60260000       0.37210000       0.36180000
    20  C          0.60260000       0.12790000       0.86180000
    21  C          0.10260000      -0.00400000       0.10180000
    22  C          0.10260000       0.50400000       0.60180000
    23  C          0.60260000       0.49600000       0.39820000
    24  C          0.60260000       0.00400000       0.89820000
    25  C          0.06500000       0.03760000       0.95800000
    26  C          0.06500000       0.46240000       0.45800000
    27  C          0.56500000       0.53760000       0.54200000
    28  C          0.56500000       0.96240000       0.04200000
    29  H          0.10300000       0.23800000       0.08300000
    30  H          0.10300000       0.26200000       0.58300000
    31  H          0.60300000       0.73800000       0.41700000
    32  H          0.60300000       0.76200000       0.91700000
    33  H          0.11700000       0.26600000       0.27000000
    34  H          0.11700000       0.23400000       0.77000000
    35  H          0.61700000       0.76600000       0.23000000
    36  H          0.61700000       0.73400000       0.73000000
    37  H          0.20000000       0.10600000       0.41200000
    38  H          0.20000000       0.39400000       0.91200000
    39  H          0.70000000       0.60600000       0.08800000
    40  H          0.70000000       0.89400000       0.58800000
    41  H          0.00100000       0.98300000       0.77100000
    42  H          0.00100000       0.51700000       0.27100000
    43  H          0.50100000       0.48300000       0.72900000
    44  H          0.50100000       0.01700000       0.22900000
    45  H          0.19600000       0.89000000       0.47800000
    46  H          0.19600000       0.61000000       0.97800000
    47  H          0.69600000       0.39000000       0.02200000
    48  H          0.69600000       0.11000000       0.52200000
    49  H          0.13600000       0.73200000       0.29000000
    50  H          0.13600000       0.76800000       0.79000000
    51  H          0.63600000       0.23200000       0.21000000
    52  H          0.63600000       0.26800000       0.71000000
    53  H          0.07500000       0.80600000       0.06000000
    54  H          0.07500000       0.69400000       0.56000000
    55  H          0.57500000       0.30600000       0.44000000
    56  H          0.57500000       0.19400000       0.94000000
    57  N          0.14280000       0.21080000       0.17990000
    58  N          0.14280000       0.28920000       0.67990000
    59  N          0.64280000       0.71080000       0.32010000
    60  N          0.64280000       0.78920000       0.82010000
    61  O          0.07400000       0.14400000       0.91930000
    62  O          0.07400000       0.35600000       0.41930000
    63  O          0.57400000       0.64400000       0.58070000
    64  O          0.57400000       0.85600000       0.08070000
    65  O          0.02550000       0.94870000       0.87440000
    66  O          0.02550000       0.55130000       0.37440000
    67  O          0.52550000       0.44870000       0.62560000
    68  O          0.52550000       0.05130000       0.12560000
    69  C          0.36090000       0.41860000       0.20080000
    70  C          0.36090000       0.08140000       0.70080000
    71  C          0.86090000       0.91860000       0.29920000
    72  C          0.86090000       0.58140000       0.79920000
    73  C          0.33210000       0.46050000       0.33840000
    74  C          0.33210000       0.03950000       0.83840000
    75  C          0.83210000       0.96050000       0.16160000
    76  C          0.83210000       0.53950000       0.66160000
    77  C          0.33430000       0.59000000       0.36180000
    78  C          0.33430000       0.91000000       0.86180000
    79  C          0.83430000       0.09000000       0.13820000
    80  C          0.83430000       0.41000000       0.63820000
    81  C          0.37160000       0.66920000       0.25960000
    82  C          0.37160000       0.83080000       0.75960000
    83  C          0.87160000       0.16920000       0.24040000
    84  C          0.87160000       0.33080000       0.74040000
    85  C          0.40060000       0.62150000       0.12540000
    86  C          0.40060000       0.87850000       0.62540000
    87  C          0.90060000       0.12150000       0.37460000
    88  C          0.90060000       0.37850000       0.87460000
    89  C          0.39740000       0.49330000       0.09640000
    90  C          0.39740000       0.00670000       0.59640000
    91  C          0.89740000      -0.00670000       0.40360000
    92  C          0.89740000       0.50670000       0.90360000
    93  C          0.43360000       0.45060000       0.95360000
    94  C          0.43360000       0.04940000       0.45360000
    95  C          0.93360000       0.95060000       0.54640000
    96  C          0.93360000       0.54940000       0.04640000
    97  H          0.39800000       0.25300000       0.07900000
    98  H          0.39800000       0.24700000       0.57900000
    99  H          0.89800000       0.75300000       0.42100000
   100  H          0.89800000       0.74700000       0.92100000
   101  H          0.38600000       0.23500000       0.27100000
   102  H          0.38600000       0.26500000       0.77100000
   103  H          0.88600000       0.73500000       0.22900000
   104  H          0.88600000       0.76500000       0.72900000
   105  H          0.27700000       0.25500000       0.17700000
   106  H          0.27700000       0.24500000       0.67700000
   107  H          0.77700000       0.75500000       0.32300000
   108  H          0.77700000       0.74500000       0.82300000
   109  H          0.30500000       0.39800000       0.42100000
   110  H          0.30500000       0.10200000       0.92100000
   111  H          0.80500000       0.89800000       0.07900000
   112  H          0.80500000       0.60200000       0.57900000
   113  H          0.31000000       0.62700000       0.46400000
   114  H          0.31000000       0.87300000       0.96400000
   115  H          0.81000000       0.12700000       0.03600000
   116  H          0.81000000       0.37300000       0.53600000
   117  H          0.37600000       0.76700000       0.28300000
   118  H          0.37600000       0.73300000       0.78300000
   119  H          0.87600000       0.26700000       0.21700000
   120  H          0.87600000       0.23300000       0.71700000
   121  H          0.42700000       0.68400000       0.04300000
   122  H          0.42700000       0.81600000       0.54300000
   123  H          0.92700000       0.18400000       0.45700000
   124  H          0.92700000       0.31600000       0.95700000
   125  N          0.35820000       0.28100000       0.17570000
   126  N          0.35820000       0.21900000       0.67570000
   127  N          0.85820000       0.78100000       0.32430000
   128  N          0.85820000       0.71900000       0.82430000
   129  O          0.42880000       0.33650000       0.92090000
   130  O          0.42880000       0.16350000       0.42090000
   131  O          0.92880000       0.83650000       0.57910000
   132  O          0.92880000       0.66350000       0.07910000
   133  O          0.46830000       0.52970000       0.86930000
   134  O          0.46830000       0.97030000       0.36930000
   135  O          0.96830000       0.02970000       0.63070000
   136  O          0.96830000       0.47030000       0.13070000
