data_AMBNAC09
_symmetry_space_group_name_H-M    'P1'
_symmetry_Int_Tables_number       1
loop_
_symmetry_equiv_pos_site_id
_symmetry_equiv_pos_as_xyz
1 x,y,z
_cell_length_a                   26.99458
_cell_length_b                   3.73223
_cell_length_c                   12.67318
_cell_angle_alpha                90.0
_cell_angle_beta                 90.0
_cell_angle_gamma                90.0
loop_
_atom_site_label
_atom_site_type_symbol
_atom_site_fract_x
_atom_site_fract_y
_atom_site_fract_z
     1  O          0.32623900       0.22357000       0.15962000
     2  O          0.67376100       0.77643000       0.65962000
     3  O          0.17376100       0.72357000       0.65962000
     4  O          0.82623900       0.27643000       0.15962000
     5  O          0.34318800       0.47147000       0.00302000
     6  O          0.65681200       0.52853000       0.50302000
     7  O          0.15681200      -0.02853000       0.50302000
     8  O          0.84318800       0.02853000       0.00302000
     9  N          0.11867100      -0.03038000       0.94258000
    10  N          0.88132900       0.03038000       0.44258000
    11  N          0.38132900       0.46962000       0.44258000
    12  N          0.61867100       0.53038000       0.94258000
    13  C          0.31417110       0.31189000       0.06213000
    14  C          0.68582890       0.68811000       0.56213000
    15  C          0.18582890       0.81189000       0.56213000
    16  C          0.81417110       0.18811000       0.06213000
    17  C          0.26421120       0.20719000       0.03053000
    18  C          0.73578880       0.79281000       0.53053000
    19  C          0.23578880       0.70719000       0.53053000
    20  C          0.76421120       0.29281000       0.03053000
    21  C          0.24705120       0.29279000       0.92957000
    22  C          0.75294880       0.70721000       0.42957000
    23  C          0.25294880       0.79279000       0.42957000
    24  C          0.74705120       0.20721000       0.92957000
    25  C          0.19931130       0.21199000       0.89947000
    26  C          0.80068870       0.78801000       0.39947000
    27  C          0.30068870       0.71199000       0.39947000
    28  C          0.69931130       0.28801000       0.89947000
    29  C          0.16700110       0.04019000       0.97008000
    30  C          0.83299890       0.95981000       0.47008000
    31  C          0.33299890       0.54019000       0.47008000
    32  C          0.66700110       0.45981000       0.97008000
    33  C          0.18435110       0.95211000       0.07082000
    34  C          0.81564890       0.04789000       0.57082000
    35  C          0.31564890       0.45211000       0.57082000
    36  C          0.68435110       0.54789000       0.07082000
    37  C          0.23219110       0.03579000       0.10092000
    38  C          0.76780890      -0.03579000       0.60092000
    39  C          0.26780890       0.53579000       0.60092000
    40  C          0.73219110       0.46421000       0.10092000
    41  H          0.11181700      -0.00612000       0.86860000
    42  H          0.88818300       0.00612000       0.36860000
    43  H          0.38818300       0.49388000       0.36860000
    44  H          0.61181700       0.50612000       0.86860000
    45  H          0.10351700       0.80688000       0.98460000
    46  H          0.89648300       0.19312000       0.48460000
    47  H          0.39648300       0.30688000       0.48460000
    48  H          0.60351700       0.69312000       0.98460000
    49  H          0.18891700       0.26611000       0.81660000
    50  H          0.81108300       0.73389000       0.31660000
    51  H          0.31108300       0.76611000       0.31660000
    52  H          0.68891700       0.23389000       0.81660000
    53  H          0.35711700       0.34200000       0.18260000
    54  H          0.64288300       0.65800000       0.68260000
    55  H          0.14288300       0.84200000       0.68260000
    56  H          0.85711700       0.15800000       0.18260000
    57  H          0.26831400       0.41211000       0.88170000
    58  H          0.73168600       0.58789000       0.38170000
    59  H          0.23168600       0.91211000       0.38170000
    60  H          0.76831400       0.08789000       0.88170000
    61  H          0.16241400       0.82388000       0.12330000
    62  H          0.83758600       0.17612000       0.62330000
    63  H          0.33758600       0.32388000       0.62330000
    64  H          0.66241400       0.67612000       0.12330000
    65  H          0.24431400      -0.02710000       0.17530000
    66  H          0.75568600       0.02710000       0.67530000
    67  H          0.25568600       0.47290000       0.67530000
    68  H          0.74431400       0.52710000       0.17530000
    69  O          0.42862900       0.74586000       0.06182000
    70  O          0.57137100       0.25414000       0.56182000
    71  O          0.07137100       0.24586000       0.56182000
    72  O          0.92862900       0.75414000       0.06182000
    73  O          0.41094800       0.49646000       0.21799190
    74  O          0.58905200       0.50354000       0.71799190
    75  O          0.08905200      -0.00354000       0.71799190
    76  O          0.91094800       0.00354000       0.21799190
    77  N          0.63292100       0.02689000       0.29353000
    78  N          0.36707900      -0.02689000       0.79353000
    79  N          0.86707900       0.52689000       0.79353000
    80  N          0.13292100       0.47311000       0.29353000
    81  C          0.43984110       0.66389000       0.16093000
    82  C          0.56015890       0.33611000       0.66093000
    83  C          0.06015890       0.16389000       0.66093000
    84  C          0.93984110       0.83611000       0.16093000
    85  C          0.48920120       0.77528000       0.19573000
    86  C          0.51079880       0.22472000       0.69573000
    87  C          0.01079880       0.27528000       0.69573000
    88  C          0.98920120       0.72472000       0.19573000
    89  C          0.50488120       0.69469000       0.29823000
    90  C          0.49511880       0.30531000       0.79823000
    91  C         -0.00488120       0.19469000       0.79823000
    92  C          0.00488120       0.80531000       0.29823000
    93  C          0.55198130       0.78179000       0.33183000
    94  C          0.44801870       0.21821000       0.83183000
    95  C          0.94801870       0.28179000       0.83183000
    96  C          0.05198130       0.71821000       0.33183000
    97  C          0.58484100       0.95549000       0.26272000
    98  C          0.41515900       0.04451000       0.76272000
    99  C          0.91515900       0.45549000       0.76272000
   100  C          0.08484100       0.54451000       0.26272000
   101  C          0.56921110       0.03988000       0.16023000
   102  C          0.43078890       0.96012000       0.66023000
   103  C          0.93078890       0.53988000       0.66023000
   104  C          0.06921110       0.46012000       0.16023000
   105  C          0.52193110       0.95138000       0.12722000
   106  C          0.47806890       0.04862000       0.62722000
   107  C          0.97806890       0.45138000       0.62722000
   108  C          0.02193110       0.54862000       0.12722000
   109  H          0.63891600       0.00311000       0.35840000
   110  H          0.36108400      -0.00311000       0.85840000
   111  H          0.86108400       0.50311000       0.85840000
   112  H          0.13891600       0.49689000       0.35840000
   113  H          0.64831900       0.20114000       0.25840000
   114  H          0.35168100       0.79886000       0.75840000
   115  H          0.85168100       0.70114000       0.75840000
   116  H          0.14831900       0.29886000       0.25840000
   117  H          0.56361600       0.72911000       0.39740000
   118  H          0.43638400       0.27089000       0.89740000
   119  H          0.93638400       0.22911000       0.89740000
   120  H          0.06361600       0.77089000       0.39740000
   121  H          0.39751300       0.68510000       0.04630000
   122  H          0.60248700       0.31490000       0.54630000
   123  H          0.10248700       0.18510000       0.54630000
   124  H          0.89751300       0.81490000       0.04630000
   125  H          0.48251500       0.56412000       0.34930000
   126  H          0.51748500       0.43588000       0.84930000
   127  H          0.01748500       0.06412000       0.84930000
   128  H          0.98251500       0.93588000       0.34930000
   129  H          0.58971500       0.15512000       0.11530000
   130  H          0.41028500       0.84488000       0.61530000
   131  H          0.91028500       0.65512000       0.61530000
   132  H          0.08971500       0.34488000       0.11530000
   133  H          0.51121400       0.01711000       0.05130000
   134  H          0.48878600      -0.01711000       0.55130000
   135  H          0.98878600       0.51711000       0.55130000
   136  H          0.01121400       0.48289000       0.05130000
