data_AMBNAC04
_symmetry_space_group_name_H-M    'P1'
_symmetry_Int_Tables_number       1
loop_
_symmetry_equiv_pos_site_id
_symmetry_equiv_pos_as_xyz
1 x,y,z
_cell_length_a                   6.27823
_cell_length_b                   8.58314
_cell_length_c                   12.36496
_cell_angle_alpha                90.0
_cell_angle_beta                 100.1332
_cell_angle_gamma                90.0
loop_
_atom_site_label
_atom_site_type_symbol
_atom_site_fract_x
_atom_site_fract_y
_atom_site_fract_z
     1  O          0.05212000       0.34752000       0.41032120
     2  O          0.44788000       0.84752000       0.08967880
     3  O          0.94788000       0.65248000       0.58967880
     4  O          0.55212000       0.15248000       0.91032120
     5  H          0.16650000       0.41570000       0.37690000
     6  H          0.33350000       0.91570000       0.12310000
     7  H          0.83350000       0.58430000       0.62310000
     8  H          0.66650000       0.08430000       0.87690000
     9  C          0.17873000       0.30423000       0.50338160
    10  C          0.32127000       0.80423000      -0.00338160
    11  C          0.82127000       0.69577000       0.49661840
    12  C          0.67873000       0.19577000       0.00338160
    13  O          0.36882000       0.33852000       0.52368140
    14  O          0.13118000       0.83852000       0.97631860
    15  O          0.63118000       0.66148000       0.47631860
    16  O          0.86882000       0.16148000       0.02368140
    17  C          0.87117000       0.03302000       0.72087160
    18  C          0.62883000       0.53302000       0.77912840
    19  C          0.12883000       0.96698000       0.27912840
    20  C          0.37117000       0.46698000       0.22087160
    21  C          0.06693000       0.21122000       0.57709160
    22  C          0.43307000       0.71122000       0.92290840
    23  C          0.93307000       0.78878000       0.42290840
    24  C          0.56693000       0.28878000       0.07709160
    25  N          0.76947000       0.94958000       0.79567140
    26  N          0.73053000       0.44958000       0.70432860
    27  N          0.23053000       0.05042000       0.20432860
    28  N          0.26947000       0.55042000       0.29567140
    29  H          0.87050000       0.89930000       0.84130000
    30  H          0.62950000       0.39930000       0.65870000
    31  H          0.12950000       0.10070000       0.15870000
    32  H          0.37050000       0.60070000       0.34130000
    33  H          0.65790000       0.88060000       0.76180000
    34  H          0.84210000       0.38060000       0.73820000
    35  H          0.34210000       0.11940000       0.23820000
    36  H          0.15790000       0.61940000       0.26180000
    37  C          0.85737000       0.15443000       0.54428170
    38  C          0.64263000       0.65443000       0.95571830
    39  C          0.14263000       0.84557000       0.45571830
    40  C          0.35737000       0.34557000       0.04428170
    41  H          0.78680000       0.18030000       0.45960000
    42  H          0.71320000       0.68030000       0.04040000
    43  H          0.21320000       0.81970000       0.54040000
    44  H          0.28680000       0.31970000       0.95960000
    45  C          0.07783000       0.09303000       0.75496180
    46  C          0.42217000       0.59303000       0.74503820
    47  C          0.92217000       0.90697000       0.24503820
    48  C          0.57783000       0.40697000       0.25496180
    49  H          0.15910000       0.07410000       0.84190000
    50  H          0.34090000       0.57410000       0.65810000
    51  H          0.84090000       0.92590000       0.15810000
    52  H          0.65910000       0.42590000       0.34190000
    53  C          0.76087000       0.06493000       0.61529170
    54  C          0.73913000       0.56493000       0.88470830
    55  C          0.23913000       0.93507000       0.38470830
    56  C          0.26087000       0.43507000       0.11529170
    57  H          0.60800000       0.00990000       0.58600000
    58  H          0.89200000       0.50990000       0.91400000
    59  H          0.39200000      -0.00990000       0.41400000
    60  H          0.10800000       0.49010000       0.08600000
    61  C          0.17433000       0.18043000       0.68364170
    62  C          0.32567000       0.68043000       0.81635830
    63  C          0.82567000       0.81957000       0.31635830
    64  C          0.67433000       0.31957000       0.18364170
    65  H          0.33540000       0.22270000       0.70160000
    66  H          0.16460000       0.72270000       0.79840000
    67  H          0.66460000       0.77730000       0.29840000
    68  H          0.83540000       0.27730000       0.20160000
