data_AMBNAC14
_symmetry_space_group_name_H-M    'P1'
_symmetry_Int_Tables_number       1
loop_
_symmetry_equiv_pos_site_id
_symmetry_equiv_pos_as_xyz
1 x,y,z
_cell_length_a                   6.434111
_cell_length_b                   4.61513
_cell_length_c                   10.53137
_cell_angle_alpha                90.0
_cell_angle_beta                 100.7301
_cell_angle_gamma                90.0
loop_
_atom_site_label
_atom_site_type_symbol
_atom_site_fract_x
_atom_site_fract_y
_atom_site_fract_z
     1  O          0.81530000       0.69320000       0.45251200
     2  O          0.31530000       0.30680000       0.95251200
     3  O          0.50620000       0.79491400       0.32706000
     4  O          0.00620000       0.20508600       0.82706000
     5  H          0.58222300       0.89216900       0.28911800
     6  H          0.08222300       0.10783100       0.78911800
     7  C          0.62050000       0.66130000       0.42071800
     8  C          0.12050000       0.33870000       0.92071800
     9  N          0.18930000       0.83608500       0.67901000
    10  N          0.68930000       0.16391500       0.17901000
    11  H          0.07584300       0.76083900       0.62680200
    12  H          0.57584300       0.23916100       0.12680200
    13  H          0.27726600       0.69529900       0.71152000
    14  H          0.77726600       0.30470100       0.21152000
    15  C          0.29361800       0.38991100       0.44466000
    16  C          0.79361800       0.61008900       0.94466000
    17  H          0.22036700       0.48907100       0.37320500
    18  H          0.72036700       0.51092900       0.87320500
    19  C          0.18941800       0.18621100       0.50727000
    20  C          0.68941800       0.81378900       0.00727000
    21  H          0.04652800       0.14910600       0.47771100
    22  H          0.54652800       0.85089400       0.97771100
    23  C          0.29891900       0.03791000       0.61397000
    24  C          0.79891900       0.96209000       0.11397000
    25  C          0.51251900       0.09341100       0.65807000
    26  C          0.01251900       0.90658900       0.15807000
    27  H          0.58568900      -0.00581800       0.72939800
    28  H          0.08568900       0.00581800       0.22939800
    29  C          0.61661800       0.29711300       0.59547000
    30  C          0.11661800       0.70288700       0.09547000
    31  H          0.75953300       0.33414300       0.62489300
    32  H          0.25953300       0.66585700       0.12489300
    33  C          0.50721800       0.44531100       0.48877000
    34  C          0.00721800       0.55468900      -0.01123000
