data_AMBNAC01
_symmetry_space_group_name_H-M    'P1'
_symmetry_Int_Tables_number       1
loop_
_symmetry_equiv_pos_site_id
_symmetry_equiv_pos_as_xyz
1 x,y,z
_cell_length_a                   18.5512
_cell_length_b                   3.8601
_cell_length_c                   18.6423
_cell_angle_alpha                90.0
_cell_angle_beta                 93.562
_cell_angle_gamma                90.0
loop_
_atom_site_label
_atom_site_type_symbol
_atom_site_fract_x
_atom_site_fract_y
_atom_site_fract_z
     1  C          0.15420000       0.27330000       0.92890000
     2  C          0.34580000       0.77330000       0.57110000
     3  C          0.84580000       0.72670000       0.07110000
     4  C          0.65420000       0.22670000       0.42890000
     5  C          0.22140000       0.18980000       0.96280000
     6  C          0.27860000       0.68980000       0.53720000
     7  C          0.77860000       0.81020000       0.03720000
     8  C          0.72140000       0.31020000       0.46280000
     9  C          0.28420000       0.27380000       0.93250000
    10  C          0.21580000       0.77380000       0.56750000
    11  C          0.71580000       0.72620000       0.06750000
    12  C          0.78420000       0.22620000       0.43250000
    13  C          0.28290000       0.43790000       0.86570000
    14  C          0.21710000       0.93790000       0.63430000
    15  C          0.71710000       0.56210000       0.13430000
    16  C          0.78290000       0.06210000       0.36570000
    17  C          0.21600000       0.52580000       0.83140000
    18  C          0.28400000       0.02580000       0.66860000
    19  C          0.78400000       0.47420000       0.16860000
    20  C          0.71600000      -0.02580000       0.33140000
    21  C          0.15310000       0.44220000       0.86260000
    22  C          0.34690000       0.94220000       0.63740000
    23  C          0.84690000       0.55780000       0.13740000
    24  C          0.65310000       0.05780000       0.36260000
    25  C          0.08790000       0.16810000       0.96060000
    26  C          0.41210000       0.66810000       0.53940000
    27  C          0.91210000       0.83190000       0.03940000
    28  C          0.58790000       0.33190000       0.46060000
    29  H          0.99100000       0.13500000       0.94700000
    30  H          0.50900000       0.63500000       0.55300000
    31  H          0.00900000       0.86500000       0.05300000
    32  H          0.49100000       0.36500000       0.44700000
    33  H          0.22400000       0.06500000       0.01100000
    34  H          0.27600000       0.56500000       0.48900000
    35  H          0.77600000       0.93500000       0.98900000
    36  H          0.72400000       0.43500000       0.51100000
    37  H          0.33000000       0.23800000       0.95600000
    38  H          0.17000000       0.73800000       0.54400000
    39  H          0.67000000       0.76200000       0.04400000
    40  H          0.83000000       0.26200000       0.45600000
    41  H          0.39000000       0.48400000       0.86100000
    42  H          0.11000000      -0.01600000       0.63900000
    43  H          0.61000000       0.51600000       0.13900000
    44  H          0.89000000       0.01600000       0.36100000
    45  H          0.34600000       0.67800000       0.80100000
    46  H          0.15400000       0.17800000       0.69900000
    47  H          0.65400000       0.32200000       0.19900000
    48  H          0.84600000       0.82200000       0.30100000
    49  H          0.21500000       0.66600000       0.78300000
    50  H          0.28500000       0.16600000       0.71700000
    51  H          0.78500000       0.33400000       0.21700000
    52  H          0.71500000       0.83400000       0.28300000
    53  H          0.10600000       0.49000000       0.83700000
    54  H          0.39400000      -0.01000000       0.66300000
    55  H          0.89400000       0.51000000       0.16300000
    56  H          0.60600000       0.01000000       0.33700000
    57  N          0.34610000       0.50790000       0.83340000
    58  N          0.15390000       0.00790000       0.66660000
    59  N          0.65390000       0.49210000       0.16660000
    60  N          0.84610000      -0.00790000       0.33340000
    61  O          0.08660000       0.00890000       0.01800000
    62  O          0.41340000       0.50890000       0.48200000
    63  O          0.91340000      -0.00890000       0.98200000
    64  O          0.58660000       0.49110000       0.51800000
    65  O          0.02760000       0.25860000       0.92460000
    66  O          0.47240000       0.75860000       0.57540000
    67  O          0.97240000       0.74140000       0.07540000
    68  O          0.52760000       0.24140000       0.42460000
    69  C          0.42860000       0.71790000       0.15190000
    70  C          0.07140000       0.21790000       0.34810000
    71  C          0.57140000       0.28210000       0.84810000
    72  C          0.92860000       0.78210000       0.65190000
    73  C          0.46240000       0.79270000       0.21940000
    74  C          0.03760000       0.29270000       0.28060000
    75  C          0.53760000       0.20730000       0.78060000
    76  C          0.96240000       0.70730000       0.71940000
    77  C          0.43090000       0.70330000       0.28170000
    78  C          0.06910000       0.20330000       0.21830000
    79  C          0.56910000       0.29670000       0.71830000
    80  C          0.93090000       0.79670000       0.78170000
    81  C          0.36420000       0.53520000       0.27830000
    82  C          0.13580000       0.03520000       0.22170000
    83  C          0.63580000       0.46480000       0.72170000
    84  C          0.86420000      -0.03520000       0.77830000
    85  C          0.33000000       0.45480000       0.21110000
    86  C          0.17000000       0.95480000       0.28890000
    87  C          0.67000000       0.54520000       0.78890000
    88  C          0.83000000       0.04520000       0.71110000
    89  C          0.36220000       0.54700000       0.14890000
    90  C          0.13780000       0.04700000       0.35110000
    91  C          0.63780000       0.45300000       0.85110000
    92  C          0.86220000       0.95300000       0.64890000
    93  C          0.46150000       0.82730000       0.08620000
    94  C          0.03850000       0.32730000       0.41380000
    95  C          0.53850000       0.17270000       0.91380000
    96  C          0.96150000       0.67270000       0.58620000
    97  H          0.45000000       0.88900000       0.98700000
    98  H          0.05000000       0.38900000       0.51300000
    99  H          0.55000000       0.11100000       0.01300000
   100  H          0.95000000       0.61100000       0.48700000
   101  H          0.50800000       0.93300000       0.22000000
   102  H          0.99200000       0.43300000       0.28000000
   103  H          0.49200000       0.06700000       0.78000000
   104  H          0.00800000       0.56700000       0.72000000
   105  H          0.45700000       0.75000000       0.33000000
   106  H          0.04300000       0.25000000       0.17000000
   107  H          0.54300000       0.25000000       0.67000000
   108  H          0.95700000       0.75000000       0.83000000
   109  H          0.35900000       0.48300000       0.38300000
   110  H          0.14100000      -0.01700000       0.11700000
   111  H          0.64100000       0.51700000       0.61700000
   112  H          0.85900000       0.01700000       0.88300000
   113  H          0.30100000       0.28900000       0.34100000
   114  H          0.19900000       0.78900000       0.15900000
   115  H          0.69900000       0.71100000       0.65900000
   116  H          0.80100000       0.21100000       0.84100000
   117  H          0.28200000       0.32900000       0.20600000
   118  H          0.21800000       0.82900000       0.29400000
   119  H          0.71800000       0.67100000       0.79400000
   120  H          0.78200000       0.17100000       0.70600000
   121  H          0.33700000       0.49400000       0.10000000
   122  H          0.16300000      -0.00600000       0.40000000
   123  H          0.66300000       0.50600000       0.90000000
   124  H          0.83700000       0.00600000       0.60000000
   125  N          0.33040000       0.45550000       0.34010000
   126  N          0.16960000       0.95550000       0.15990000
   127  N          0.66960000       0.54450000       0.65990000
   128  N          0.83040000       0.04450000       0.84010000
   129  O          0.52130000      -0.02360000       0.08830000
   130  O          0.97870000       0.47640000       0.41170000
   131  O          0.47870000       0.02360000       0.91170000
   132  O          0.02130000       0.52360000       0.58830000
   133  O          0.42480000       0.76570000       0.02620000
   134  O          0.07520000       0.26570000       0.47380000
   135  O          0.57520000       0.23430000       0.97380000
   136  O          0.92480000       0.73430000       0.52620000
