data_AMNTPY01
_symmetry_space_group_name_H-M    'P1'
_symmetry_Int_Tables_number       1
loop_
_symmetry_equiv_pos_site_id
_symmetry_equiv_pos_as_xyz
1 x,y,z
_cell_length_a                   4.9171
_cell_length_b                   6.9402
_cell_length_c                   17.5073
_cell_angle_alpha                90.0
_cell_angle_beta                 95.632
_cell_angle_gamma                90.0
loop_
_atom_site_label
_atom_site_type_symbol
_atom_site_fract_x
_atom_site_fract_y
_atom_site_fract_z
     1  N          0.76706000       0.58045000       0.91822000
     2  N          0.23294000       0.08045000       0.58178000
     3  N          0.23294000       0.41955000       0.08178000
     4  N          0.76706000       0.91955000       0.41822000
     5  C          0.63768000       0.40895000       0.92442000
     6  C          0.36232000       0.90895000       0.57558000
     7  C          0.36232000       0.59105000       0.07558000
     8  C          0.63768000       0.09105000       0.42442000
     9  N          0.75006000       0.29194000       0.97892000
    10  N          0.24994000       0.79194000       0.52108000
    11  N          0.24994000       0.70806000       0.02108000
    12  N          0.75006000       0.20806000       0.47892000
    13  C          0.39988000       0.36845000       0.87412000
    14  C          0.60012000       0.86845000       0.62588000
    15  C          0.60012000       0.63155000       0.12588000
    16  C          0.39988000       0.13155000       0.37412000
    17  N          0.25507000       0.18894000       0.87702000
    18  N          0.74493000       0.68894000       0.62298000
    19  N          0.74493000       0.81106000       0.12298000
    20  N          0.25507000       0.31106000       0.37702000
    21  O          0.33006000       0.06974000       0.92751000
    22  O          0.66994000       0.56974000       0.57249000
    23  O          0.66994000       0.93026000       0.07249000
    24  O          0.33006000       0.43026000       0.42751000
    25  O          0.05766000       0.15794000       0.82871000
    26  O          0.94234000       0.65794000       0.67129000
    27  O          0.94234000       0.84206000       0.17129000
    28  O          0.05766000       0.34206000       0.32871000
    29  C          0.29948000       0.50486000       0.82012000
    30  C          0.70052000       0.00486000       0.67988000
    31  C          0.70052000       0.49514000       0.17988000
    32  C          0.29948000      -0.00486000       0.32012000
    33  C          0.43248000       0.67606000       0.81512000
    34  C          0.56752000       0.17606000       0.68488000
    35  C          0.56752000       0.32394000       0.18488000
    36  C          0.43248000       0.82394000       0.31512000
    37  C          0.66878000       0.70636000       0.86572000
    38  C          0.33122000       0.20636000       0.63428000
    39  C          0.33122000       0.29364000       0.13428000
    40  C          0.66878000       0.79364000       0.36572000
    41  H          0.65476000       0.18644000      -0.00158000
    42  H          0.34524000       0.68644000       0.50158000
    43  H          0.34524000       0.81356000       0.00158000
    44  H          0.65476000       0.31356000       0.49842000
    45  H          0.13268000       0.47396000       0.78072000
    46  H          0.86732000       0.97396000       0.71928000
    47  H          0.86732000       0.52604000       0.21928000
    48  H          0.13268000       0.02604000       0.28072000
    49  H          0.35588000       0.77316000       0.78102000
    50  H          0.64412000       0.27316000       0.71898000
    51  H          0.64412000       0.22684000       0.21898000
    52  H          0.35588000       0.72684000       0.28102000
    53  H          0.78928000       0.83166000       0.85922000
    54  H          0.21072000       0.33166000       0.64078000
    55  H          0.21072000       0.16834000       0.14078000
    56  H          0.78928000       0.66834000       0.35922000
    57  H          0.91018000       0.31146000       0.00962000
    58  H          0.08982000       0.81146000       0.49038000
    59  H          0.08982000       0.68854000       0.99038000
    60  H          0.91018000       0.18854000       0.50962000
