data_AMNTPY
_symmetry_space_group_name_H-M    'P1'
_symmetry_Int_Tables_number       1
loop_
_symmetry_equiv_pos_site_id
_symmetry_equiv_pos_as_xyz
1 x,y,z
_cell_length_a                   8.7431
_cell_length_b                   4.8981
_cell_length_c                   14.4731
_cell_angle_alpha                90.0
_cell_angle_beta                 106.571
_cell_angle_gamma                90.0
loop_
_atom_site_label
_atom_site_type_symbol
_atom_site_fract_x
_atom_site_fract_y
_atom_site_fract_z
     1  C          0.32173000       0.16128000       0.47594000
     2  C          0.17827000       0.66128000       0.02406000
     3  C          0.67827000       0.83872000       0.52406000
     4  C          0.82173000       0.33872000       0.97594000
     5  C          0.21437000       0.94202000       0.46982000
     6  C          0.28563000       0.44202000       0.03018000
     7  C          0.78563000       0.05798000       0.53018000
     8  C          0.71437000       0.55798000       0.96982000
     9  C          0.19416000       0.82583000       0.55308000
    10  C          0.30584000       0.32583000       0.94692000
    11  C          0.80584000       0.17417000       0.44692000
    12  C          0.69416000       0.67417000       0.05308000
    13  C          0.27964000       0.92463000       0.64098000
    14  C          0.22036000       0.42463000       0.85902000
    15  C          0.72036000       0.07537000       0.35902000
    16  C          0.77964000       0.57537000       0.14098000
    17  C          0.38186000       0.13976000       0.64219000
    18  C          0.11814000       0.63976000       0.85781000
    19  C          0.61814000       0.86024000       0.35781000
    20  C          0.88186000       0.36024000       0.14219000
    21  H          0.43400000       0.43100000       0.41500000
    22  H          0.06600000       0.93100000       0.08500000
    23  H          0.56600000       0.56900000       0.58500000
    24  H          0.93400000       0.06900000       0.91500000
    25  H          0.30700000       0.22800000       0.34400000
    26  H          0.19300000       0.72800000       0.15600000
    27  H          0.69300000       0.77200000       0.65600000
    28  H          0.80700000       0.27200000       0.84400000
    29  H          0.11600000       0.67500000       0.54500000
    30  H          0.38400000       0.17500000       0.95500000
    31  H          0.88400000       0.32500000       0.45500000
    32  H          0.61600000       0.82500000       0.04500000
    33  H          0.27300000       0.85100000       0.70200000
    34  H          0.22700000       0.35100000       0.79800000
    35  H          0.72700000       0.14900000       0.29800000
    36  H          0.77300000       0.64900000       0.20200000
    37  H          0.44400000       0.21500000       0.70100000
    38  H          0.05600000       0.71500000       0.79900000
    39  H          0.55600000       0.78500000       0.29900000
    40  H          0.94400000       0.28500000       0.20100000
    41  N          0.40401000       0.25785000       0.56456000
    42  N          0.09599000       0.75785000       0.93544000
    43  N          0.59599000       0.74215000       0.43544000
    44  N          0.90401000       0.24215000       0.06456000
    45  N          0.35207000       0.29200000       0.40207000
    46  N          0.14793000       0.79200000       0.09793000
    47  N          0.64793000       0.70800000       0.59793000
    48  N          0.85207000       0.20800000       0.90207000
    49  N          0.12528000       0.82665000       0.37890000
    50  N          0.37472000       0.32665000       0.12110000
    51  N          0.87472000       0.17335000       0.62110000
    52  N          0.62528000       0.67335000       0.87890000
    53  O          0.14801000       0.91624000       0.30413000
    54  O          0.35199000       0.41624000       0.19587000
    55  O          0.85199000       0.08376000       0.69587000
    56  O          0.64801000       0.58376000       0.80413000
    57  O          0.02980000       0.64194000       0.37814000
    58  O          0.47020000       0.14194000       0.12186000
    59  O          0.97020000       0.35806000       0.62186000
    60  O          0.52980000       0.85806000       0.87814000
