data_AMNTPY02
_symmetry_space_group_name_H-M    'P1'
_symmetry_Int_Tables_number       1
loop_
_symmetry_equiv_pos_site_id
_symmetry_equiv_pos_as_xyz
1 x,y,z
_cell_length_a                   3.7372
_cell_length_b                   7.4452
_cell_length_c                   20.9746
_cell_angle_alpha                90.0
_cell_angle_beta                 90.523
_cell_angle_gamma                90.0
loop_
_atom_site_label
_atom_site_type_symbol
_atom_site_fract_x
_atom_site_fract_y
_atom_site_fract_z
     1  N          0.35219000       0.02115000       0.58252000
     2  N          0.14781000       0.52115000       0.91748000
     3  N          0.64781000       0.97885000       0.41748000
     4  N          0.85219000       0.47885000       0.08252000
     5  N          0.30381000       0.77115000       0.52082000
     6  N          0.19619000       0.27115000       0.97918000
     7  N          0.69619000       0.22885000       0.47918000
     8  N          0.80381000       0.72885000       0.02082000
     9  N          0.93661000       0.58425000       0.62662000
    10  N          0.56339000       0.08425000       0.87338000
    11  N          0.06339000       0.41575000       0.37338000
    12  N          0.43661000       0.91575000       0.12662000
    13  O          0.78009000       0.52164000       0.67302000
    14  O          0.71991000       0.02164000       0.82698000
    15  O          0.21991000       0.47836000       0.32698000
    16  O          0.28009000       0.97836000       0.17302000
    17  O         -0.01261000       0.49354000       0.57812000
    18  O          0.51261000      -0.00646000       0.92188000
    19  O          0.01261000       0.50646000       0.42188000
    20  O          0.48739000       0.00646000       0.07812000
    21  C          0.23731000       0.84745000       0.57702000
    22  C          0.26269000       0.34745000       0.92298000
    23  C          0.76269000       0.15255000       0.42298000
    24  C          0.73731000       0.65255000       0.07702000
    25  C          0.06141100       0.76516000       0.63002000
    26  C          0.43858900       0.26516000       0.86998000
    27  C          0.93858900       0.23484000       0.36998000
    28  C          0.56141100       0.73484000       0.13002000
    29  C          0.01461100       0.85986000       0.68582000
    30  C          0.48538900       0.35986000       0.81418000
    31  C         -0.01461100       0.14014000       0.31418000
    32  C          0.51461100       0.64014000       0.18582000
    33  C          0.13251100       0.03576000       0.68992000
    34  C          0.36748900       0.53576000       0.81008000
    35  C          0.86748900       0.96424000       0.31008000
    36  C          0.63251100       0.46424000       0.18992000
    37  C          0.29911100       0.10726000       0.63722000
    38  C          0.20088900       0.60726000       0.86278000
    39  C          0.70088900       0.89274000       0.36278000
    40  C          0.79911100       0.39274000       0.13722000
    41  H          0.24081000       0.64755000       0.52162000
    42  H          0.25919000       0.14755000       0.97838000
    43  H          0.75919000       0.35245000       0.47838000
    44  H          0.74081000       0.85245000       0.02162000
    45  H          0.44491000       0.81105000       0.48022000
    46  H          0.05509000       0.31105000       0.01978000
    47  H          0.55509000       0.18895000       0.51978000
    48  H          0.94491000       0.68895000       0.98022000
    49  H          0.88018900       0.80126000       0.71932000
    50  H          0.61981100       0.30126000       0.78068000
    51  H          0.11981100       0.19874000       0.28068000
    52  H          0.38018900       0.69874000       0.21932000
    53  H          0.12371100       0.10336000       0.74032000
    54  H          0.37628900       0.60336000       0.75968000
    55  H          0.87628900       0.89664000       0.25968000
    56  H          0.62371100       0.39664000       0.24032000
    57  H          0.36041100       0.23786000       0.63882000
    58  H          0.13958900       0.73786000       0.86118000
    59  H          0.63958900       0.76214000       0.36118000
    60  H          0.86041100       0.26214000       0.13882000
