data_AMUBIV04
_symmetry_space_group_name_H-M    'P1'
_symmetry_Int_Tables_number       1
loop_
_symmetry_equiv_pos_site_id
_symmetry_equiv_pos_as_xyz
1 x,y,z
_cell_length_a                   5.51814
_cell_length_b                   13.619911
_cell_length_c                   20.339616
_cell_angle_alpha                90.0
_cell_angle_beta                 90.0
_cell_angle_gamma                90.0
loop_
_atom_site_label
_atom_site_type_symbol
_atom_site_fract_x
_atom_site_fract_y
_atom_site_fract_z
     1  C          0.50584000       0.43782120       0.44044900
     2  C         -0.00584000       0.56217880       0.94044900
     3  C          0.49416000       0.93782120       0.05955100
     4  C          0.00584000       0.06217880       0.55955100
     5  C          0.68314000       0.36530140       0.44322110
     6  C          0.81686000       0.63469860       0.94322110
     7  C          0.31686000       0.86530140       0.05677890
     8  C          0.18314000       0.13469860       0.55677890
     9  H          0.69220000       0.32500000       0.48000000
    10  H          0.80780000       0.67500000       0.98000000
    11  H          0.30780000       0.82500000       0.02000000
    12  H          0.19220000       0.17500000       0.52000000
    13  C          0.84484000       0.35205150       0.39281110
    14  C          0.65516000       0.64794850       0.89281110
    15  C          0.15516000       0.85205150       0.10718890
    16  C          0.34484000       0.14794850       0.60718890
    17  H          0.96200000       0.30320000       0.39630000
    18  H          0.53800000       0.69680000       0.89630000
    19  H          0.03800000       0.80320000       0.10370000
    20  H          0.46200000       0.19680000       0.60370000
    21  C          0.83714000       0.41025130       0.33649100
    22  C          0.66286000       0.58974870       0.83649100
    23  C          0.16286000       0.91025130       0.16350900
    24  C          0.33714000       0.08974870       0.66350900
    25  C          0.00334000       0.39852160       0.28216120
    26  C          0.49666000       0.60147840       0.78216120
    27  C         -0.00334000       0.89852160       0.21783880
    28  C          0.50334000       0.10147840       0.71783880
    29  H          0.12100000       0.34980000       0.28430000
    30  H          0.37900000       0.65020000       0.78430000
    31  H          0.87900000       0.84980000       0.21570000
    32  H          0.62100000       0.15020000       0.71570000
    33  C         -0.00776000       0.45523180       0.22960120
    34  C          0.50776000       0.54476820       0.72960120
    35  C          0.00776000       0.95523180       0.27039880
    36  C          0.49224000       0.04476820       0.77039880
    37  H          0.10260000       0.44520000       0.19570000
    38  H          0.39740000       0.55480000       0.69570000
    39  H          0.89740000       0.94520000       0.30430000
    40  H          0.60260000       0.05480000       0.80430000
    41  C          0.81634000       0.53155150       0.22313900
    42  C          0.68366000       0.46844850       0.72313900
    43  C          0.18366000       0.03155150       0.27686100
    44  C          0.31634000       0.96844850       0.77686100
    45  C          0.80435000       0.59362170       0.16857100
    46  C          0.69565000       0.40637830       0.66857100
    47  C          0.19565000       0.09362170       0.33142900
    48  C          0.30435000       0.90637830       0.83142900
    49  H          0.91870000       0.58720000       0.13520000
    50  H          0.58130000       0.41280000       0.63520000
    51  H          0.08130000       0.08720000       0.36480000
    52  H          0.41870000       0.91280000       0.86480000
    53  C          0.62665000       0.66416170       0.16311110
    54  C          0.87335000       0.33583830       0.66311110
    55  C          0.37335000       0.16416170       0.33688890
    56  C          0.12665000       0.83583830       0.83688890
    57  H          0.62070000       0.70400000       0.12600000
    58  H          0.87930000       0.29600000       0.62600000
    59  H          0.37930000       0.20400000       0.37400000
    60  H          0.12070000       0.79600000       0.87400000
    61  C          0.45764000       0.67599150       0.21226100
    62  C          0.04236000       0.32400850       0.71226100
    63  C          0.54236000       0.17599150       0.28773900
    64  C          0.95764000       0.82400850       0.78773900
    65  H          0.33780000       0.72360000       0.20790000
    66  H          0.16220000       0.27640000       0.70790000
    67  H          0.66220000       0.22360000       0.29210000
    68  H          0.83780000       0.77640000       0.79210000
    69  C          0.46354000       0.61739130       0.26872900
    70  C          0.03646000       0.38260870       0.76872900
    71  C          0.53646000       0.11739130       0.23127100
    72  C          0.96354000       0.88260870       0.73127100
    73  C          0.29004000       0.62661130       0.32053900
    74  C          0.20996000       0.37338870       0.82053900
    75  C          0.70996000       0.12661130       0.17946100
    76  C          0.79004000       0.87338870       0.67946100
    77  H          0.16680000       0.67280000       0.31670000
    78  H          0.33320000       0.32720000       0.81670000
    79  H          0.83320000       0.17280000       0.18330000
    80  H          0.66680000       0.82720000       0.68330000
    81  C          0.30053000       0.57013130       0.37484900
    82  C          0.19947000       0.42986870       0.87484900
    83  C          0.69947000       0.07013130       0.12515100
    84  C          0.80053000       0.92986870       0.62515100
    85  H          0.18350000       0.57810000       0.40730000
    86  H          0.31650000       0.42190000       0.90730000
    87  H          0.81650000       0.07810000       0.09270000
    88  H          0.68350000       0.92190000       0.59270000
    89  C          0.48743000       0.49788120       0.38397900
    90  C          0.01257000       0.50211880       0.88397900
    91  C          0.51257000      -0.00211880       0.11602100
    92  C         -0.01257000       0.00211880       0.61602100
    93  C          0.65523000       0.48391120       0.33185900
    94  C          0.84477000       0.51608880       0.83185900
    95  C          0.34477000       0.98391120       0.16814100
    96  C          0.15523000       0.01608880       0.66814100
    97  C          0.64433000       0.54415130       0.27457800
    98  C          0.85567000       0.45584870       0.77457800
    99  C          0.35567000       0.04415130       0.22542200
   100  C          0.14433000       0.95584870       0.72542200
   101  C          0.34284000       0.44706150       0.49892900
   102  C          0.15716000       0.55293850      -0.00107100
   103  C          0.65716000       0.94706150       0.00107100
   104  C          0.84284000       0.05293850       0.50107100
   105  C          0.30813000       0.54472130       0.53147800
   106  C          0.19187000       0.45527870       0.03147800
   107  C          0.69187000       0.04472130       0.96852200
   108  C          0.80813000       0.95527870       0.46852200
   109  C          0.47754000       0.61891130       0.52524900
   110  C          0.02246000       0.38108870       0.02524900
   111  C          0.52246000       0.11891130       0.97475100
   112  C         -0.02246000       0.88108870       0.47475100
   113  H          0.61130000       0.61000000       0.49810000
   114  H          0.88870000       0.39000000      -0.00190000
   115  H          0.38870000       0.11000000       0.00190000
   116  H          0.11130000       0.89000000       0.50190000
   117  C          0.44964000       0.70592150       0.55893100
   118  C          0.05036000       0.29407850       0.05893100
   119  C          0.55036000       0.20592150       0.94106900
   120  C          0.94964000       0.79407850       0.44106900
   121  H          0.56510000       0.75520000       0.55470000
   122  H          0.93490000       0.24480000       0.05470000
   123  H          0.43490000       0.25520000       0.94530000
   124  H          0.06510000       0.74480000       0.44530000
   125  C          0.25124000       0.72009160       0.59888100
   126  C          0.24876000       0.27990840       0.09888100
   127  C          0.74876000       0.22009160       0.90111900
   128  C          0.75124000       0.77990840       0.40111900
   129  H          0.23300000       0.77880000       0.62170000
   130  H          0.26700000       0.22120000       0.12170000
   131  H          0.76700000       0.27880000       0.87830000
   132  H          0.73300000       0.72120000       0.37830000
   133  C          0.08044000       0.64734180       0.60500110
   134  C          0.41956000       0.35265820       0.10500110
   135  C          0.91956000       0.14734180       0.89499890
   136  C          0.58044000       0.85265820       0.39499890
   137  H          0.94530000       0.65720000       0.63150000
   138  H          0.55470000       0.34280000       0.13150000
   139  H          0.05470000       0.15720000       0.86850000
   140  H          0.44530000       0.84280000       0.36850000
   141  C          0.10864000       0.55945170       0.57183100
   142  C          0.39136000       0.44054830       0.07183100
   143  C          0.89136000       0.05945170       0.92816900
   144  C          0.60864000       0.94054830       0.42816900
   145  H         -0.00640000       0.51000000       0.57660000
   146  H          0.50640000       0.49000000       0.07660000
   147  H          0.00640000       0.01000000       0.92340000
   148  H          0.49360000      -0.01000000       0.42340000
   149  O          0.24914000       0.37413110       0.52199800
   150  O          0.25086000       0.62586890       0.02199800
   151  O          0.75086000       0.87413110       0.97800200
   152  O          0.74914000       0.12586890       0.47800200
