data_AMUBIV
_symmetry_space_group_name_H-M    'P1'
_symmetry_Int_Tables_number       1
loop_
_symmetry_equiv_pos_site_id
_symmetry_equiv_pos_as_xyz
1 x,y,z
_cell_length_a                   8.00242
_cell_length_b                   9.65193
_cell_length_c                   10.08373
_cell_angle_alpha                102.81401
_cell_angle_beta                 96.57601
_cell_angle_gamma                91.47301
loop_
_atom_site_label
_atom_site_type_symbol
_atom_site_fract_x
_atom_site_fract_y
_atom_site_fract_z
     1  C          0.25178160       0.14214140       0.31530140
     2  C          0.74821840       0.85785860       0.68469860
     3  C          0.35188180       0.12608150       0.43254150
     4  C          0.64811820       0.87391850       0.56745850
     5  H          0.39220000       0.03720000       0.43570000
     6  H          0.60780000       0.96280000       0.56430000
     7  C          0.39311180       0.23786160       0.54399140
     8  C          0.60688820       0.76213840       0.45600860
     9  H          0.45940000       0.22340000       0.62120000
    10  H          0.54060000       0.77660000       0.37880000
    11  C          0.37583180       0.49179160       0.65577140
    12  C          0.62416820       0.50820840       0.34422860
    13  H          0.44380000       0.47980000       0.73320000
    14  H          0.55620000       0.52020000       0.26680000
    15  C          0.31703190       0.61984160       0.65307150
    16  C          0.68296810       0.38015840       0.34692850
    17  H          0.34330000       0.69430000       0.72950000
    18  H          0.65670000       0.30570000       0.27050000
    19  C          0.15232000       0.77777150       0.53063170
    20  C          0.84768000       0.22222850       0.46936830
    21  H          0.17700000       0.85360000       0.60610000
    22  H          0.82300000       0.14640000       0.39390000
    23  C          0.05472000       0.79810150       0.41571180
    24  C          0.94528000       0.20189850       0.58428820
    25  H          0.01500000       0.88750000       0.41410000
    26  H         -0.01500000       0.11250000       0.58590000
    27  C          0.01517190       0.68701150       0.30271170
    28  C         -0.01517190       0.31298850       0.69728830
    29  H          0.94870000       0.70230000       0.22590000
    30  H          0.05130000       0.29770000       0.77410000
    31  C          0.03455180       0.43309150       0.18851140
    32  C          0.96544820       0.56690850       0.81148860
    33  H          0.96980000       0.44670000       0.11020000
    34  H          0.03020000       0.55330000       0.88980000
    35  C          0.08803170       0.30216140       0.19067140
    36  C          0.91196830       0.69783860       0.80932860
    37  H          0.05830000       0.22760000       0.11480000
    38  H          0.94170000       0.77240000       0.88520000
    39  C          0.19030150       0.27630130       0.30856130
    40  C          0.80969850       0.72369870       0.69143870
    41  C          0.23439150       0.39263130       0.42299130
    42  C          0.76560850       0.60736870       0.57700870
    43  C          0.33606160       0.37249150       0.54160130
    44  C          0.66393840       0.62750850       0.45839870
    45  C          0.17515160       0.53010140       0.42017140
    46  C          0.82484840       0.46989860       0.57982860
    47  C          0.07394160       0.55189140       0.30244140
    48  C          0.92605840       0.44810860       0.69755860
    49  C          0.21490170       0.64506140       0.53581150
    50  C          0.78509830       0.35493860       0.46418850
    51  C          0.20529160       0.01247140       0.20285140
    52  C          0.79470840      -0.01247140       0.79714860
    53  C          0.34268160       0.91935870       0.15359130
    54  C          0.65731840       0.08064130       0.84640870
    55  C          0.30019190       0.77961850       0.08437140
    56  C          0.69980810       0.22038150       0.91562860
    57  H          0.18890000       0.74460000       0.07300000
    58  H          0.81110000       0.25540000       0.92700000
    59  C          0.42222000       0.69260830       0.03246160
    60  C          0.57778000       0.30739170       0.96753840
    61  H          0.39290000       0.59880000      -0.01290000
    62  H          0.60710000       0.40120000       0.01290000
    63  C          0.58632000       0.74333820       0.04715160
    64  C          0.41368000       0.25666180       0.95284840
    65  H          0.66780000       0.68410000       0.01110000
    66  H          0.33220000       0.31590000      -0.01110000
    67  C          0.63094190       0.88181820       0.11513160
    68  C          0.36905810       0.11818180       0.88486840
    69  H          0.74230000       0.91640000       0.12480000
    70  H          0.25770000       0.08360000       0.87520000
    71  C          0.50922170       0.96912850       0.16889150
    72  C          0.49077830       0.03087150       0.83110850
    73  H          0.53960000       0.06230000       0.21580000
    74  H          0.46040000       0.93770000       0.78420000
    75  O          0.05984120       0.98113890       0.15347110
    76  O          0.94015880       0.01886110       0.84652890
