data_AMUBIV02
_symmetry_space_group_name_H-M    'P1'
_symmetry_Int_Tables_number       1
loop_
_symmetry_equiv_pos_site_id
_symmetry_equiv_pos_as_xyz
1 x,y,z
_cell_length_a                   8.69591
_cell_length_b                   8.93041
_cell_length_c                   11.204113
_cell_angle_alpha                69.7554
_cell_angle_beta                 80.9444
_cell_angle_gamma                69.7894
loop_
_atom_site_label
_atom_site_type_symbol
_atom_site_fract_x
_atom_site_fract_y
_atom_site_fract_z
     1  C          0.97388000       0.34040190       0.70653150
     2  C          0.02612000       0.65959810       0.29346850
     3  C          0.91408000       0.51262000       0.64348150
     4  C          0.08592000       0.48738000       0.35651850
     5  H          0.84310000       0.55190000       0.57520000
     6  H          0.15690000       0.44810000       0.42480000
     7  C          0.95598000       0.62732000       0.67813150
     8  C          0.04402000       0.37268000       0.32186850
     9  H          0.91510000       0.74370000       0.63250000
    10  H          0.08490000       0.25630000       0.36750000
    11  C          0.10812000       0.68922000       0.81525170
    12  C          0.89188000       0.31078000       0.18474830
    13  H          0.07210000       0.80560000       0.76870000
    14  H          0.92790000       0.19440000       0.23130000
    15  C          0.20512000       0.63562000       0.91326170
    16  C          0.79488000       0.36438000       0.08673830
    17  H          0.23630000       0.71500000       0.93450000
    18  H          0.76370000       0.28500000       0.06550000
    19  C          0.36452000       0.40153000       0.08963170
    20  C          0.63548000       0.59847000       0.91036830
    21  H          0.39750000       0.47860000       0.11250000
    22  H          0.60250000       0.52140000       0.88750000
    23  C          0.41782000       0.23323000       0.15828170
    24  C          0.58218000       0.76677000       0.84171830
    25  H          0.48570000       0.19600000       0.22820000
    26  H          0.51430000       0.80400000       0.77180000
    27  C          0.37342000       0.11832000       0.12640160
    28  C          0.62658000       0.88168000       0.87359840
    29  H          0.41160000       0.00250000       0.17430000
    30  H          0.58840000      -0.00250000       0.82570000
    31  C          0.22552000       0.05522000      -0.01282840
    32  C          0.77448000       0.94478000       0.01282840
    33  H          0.26070000       0.93920000       0.03490000
    34  H          0.73930000       0.06080000       0.96510000
    35  C          0.13222000       0.10676190       0.88607150
    36  C          0.86778000       0.89323810       0.11392850
    37  H          0.10480000       0.02600000       0.86370000
    38  H          0.89520000       0.97400000       0.13630000
    39  C          0.11410190       0.39983190       0.84835140
    40  C          0.88589810       0.60016810       0.15164860
    41  C          0.21669190       0.34352000       0.95337150
    42  C          0.78330810       0.65648000       0.04662850
    43  C          0.05732000       0.57443190       0.77900150
    44  C          0.94268000       0.42556810       0.22099850
    45  C          0.26292000       0.46142000      -0.01308850
    46  C          0.73708000       0.53858000       0.01308850
    47  C          0.27272000       0.17052000       0.02430150
    48  C          0.72728000       0.82948000       0.97569850
    49  C          0.07362190       0.28079190       0.81173140
    50  C          0.92637810       0.71920810       0.18826860
    51  C          0.94638000       0.22052000       0.65238140
    52  C          0.05362000       0.77948000       0.34761860
    53  C          0.77718000       0.24092000       0.62301140
    54  C          0.22282000       0.75908000       0.37698860
    55  C          0.75858000       0.15312000       0.54748160
    56  C          0.24142000       0.84688000       0.45251840
    57  H          0.85270000       0.08970000       0.51000000
    58  H          0.14730000       0.91030000       0.49000000
    59  C          0.60427000       0.15802000       0.52692180
    60  C          0.39573000       0.84198000       0.47307820
    61  H          0.59260000       0.09800000       0.47530000
    62  H          0.40740000       0.90200000       0.52470000
    63  C          0.46697000       0.24953000       0.58102000
    64  C          0.53303000       0.75047000       0.41898000
    65  H          0.36140000       0.24970000       0.56840000
    66  H          0.63860000       0.75030000       0.43160000
    67  C          0.48208000       0.34112000       0.65356180
    68  C          0.51792000       0.65888000       0.34643820
    69  H          0.38720000       0.40640000       0.68890000
    70  H          0.61280000       0.59360000       0.31110000
    71  C          0.63758000       0.33672000       0.67439170
    72  C          0.36242000       0.66328000       0.32560830
    73  H          0.64850000       0.39950000       0.72400000
    74  H          0.35150000       0.60050000       0.27600000
    75  O          0.06315150       0.10601140       0.63162110
    76  O          0.93684850       0.89398860       0.36837890
