data_ANISAC03
_symmetry_space_group_name_H-M    'P1'
_symmetry_Int_Tables_number       1
loop_
_symmetry_equiv_pos_site_id
_symmetry_equiv_pos_as_xyz
1 x,y,z
_cell_length_a                   15.948915
_cell_length_b                   7.44487
_cell_length_c                   11.171611
_cell_angle_alpha                90.0
_cell_angle_beta                 90.0
_cell_angle_gamma                90.0
loop_
_atom_site_label
_atom_site_type_symbol
_atom_site_fract_x
_atom_site_fract_y
_atom_site_fract_z
     1  S          0.06856400       0.49342900       0.30533600
     2  S          0.93143600       0.50657100       0.80533600
     3  S          0.43143600       0.49342900       0.80533600
     4  S          0.56856400       0.50657100       0.30533600
     5  O          0.11737110       0.36602000       0.23523160
     6  O          0.88262890       0.63398000       0.73523160
     7  O          0.38262890       0.36602000       0.73523160
     8  O          0.61737110       0.63398000       0.23523160
     9  O          0.99078880       0.42092000       0.35139150
    10  O          0.00921120       0.57908000       0.85139150
    11  O          0.50921120       0.42092000       0.85139150
    12  O          0.49078880       0.57908000       0.35139150
    13  O          0.05735110       0.66322000       0.23876160
    14  O          0.94264890       0.33678000       0.73876160
    15  O          0.44264890       0.66322000       0.73876160
    16  O          0.55735110       0.33678000       0.23876160
    17  N          0.35620150       0.58073000       0.51342000
    18  N          0.64379850       0.41927000       0.01342000
    19  N          0.14379850       0.58073000       0.01342000
    20  N          0.85620150       0.41927000       0.51342000
    21  C          0.13063160       0.55503000       0.43142000
    22  C          0.86936840       0.44497000       0.93142000
    23  C          0.36936840       0.55503000       0.93142000
    24  C          0.63063160       0.44497000       0.43142000
    25  C          0.21772160       0.53553000       0.42522000
    26  C          0.78227840       0.46447000       0.92522000
    27  C          0.28227840       0.53553000       0.92522000
    28  C          0.71772160       0.46447000       0.42522000
    29  C          0.26470160       0.59533000       0.52092000
    30  C          0.73529840       0.40467000       0.02092000
    31  C          0.23529840       0.59533000       0.02092000
    32  C          0.76470160       0.40467000       0.52092000
    33  C          0.22825180       0.67093000       0.62082000
    34  C          0.77174820       0.32907000       0.12082000
    35  C          0.27174820       0.67093000       0.12082000
    36  C          0.72825180       0.32907000       0.62082000
    37  C          0.14111170       0.68643000       0.62672000
    38  C          0.85888830       0.31357000       0.12672000
    39  C          0.35888830       0.68643000       0.12672000
    40  C          0.64111170       0.31357000       0.62672000
    41  C          0.09297170       0.62934000       0.53202000
    42  C          0.90702830       0.37066000       0.03202000
    43  C          0.40702830       0.62934000       0.03202000
    44  C          0.59297170       0.37066000       0.53202000
    45  H          0.24370000       0.48280000       0.35720000
    46  H          0.75630000       0.51720000       0.85720000
    47  H          0.25630000       0.48280000       0.85720000
    48  H          0.74370000       0.51720000       0.35720000
    49  H          0.26210000       0.71210000       0.68510000
    50  H          0.73790000       0.28790000       0.18510000
    51  H          0.23790000       0.71210000       0.18510000
    52  H          0.76210000       0.28790000       0.68510000
    53  H          0.11520000       0.73620000       0.69570000
    54  H          0.88480000       0.26380000       0.19570000
    55  H          0.38480000       0.73620000       0.19570000
    56  H          0.61520000       0.26380000       0.69570000
    57  H          0.03370000       0.64070000       0.53540000
    58  H          0.96630000       0.35930000       0.03540000
    59  H          0.46630000       0.64070000       0.03540000
    60  H          0.53370000       0.35930000       0.53540000
    61  H          0.38720000       0.61040000       0.58730000
    62  H          0.61280000       0.38960000       0.08730000
    63  H          0.11280000       0.61040000       0.08730000
    64  H          0.88720000       0.38960000       0.58730000
    65  H          0.37181800       0.47140000       0.49430000
    66  H          0.62818200       0.52860000      -0.00570000
    67  H          0.12818200       0.47140000      -0.00570000
    68  H          0.87181800       0.52860000       0.49430000
    69  H          0.37571700       0.64740000       0.46130000
    70  H          0.62428300       0.35260000       0.96130000
    71  H          0.12428300       0.64740000       0.96130000
    72  H          0.87571700       0.35260000       0.46130000
    73  S          0.35408400       0.05545800       0.47984600
    74  S          0.64591600       0.94454200       0.97984600
    75  S          0.14591600       0.05545800       0.97984600
    76  S          0.85408400       0.94454200       0.47984600
    77  O          0.36762110       0.91938000       0.38737160
    78  O          0.63237890       0.08062000       0.88737160
    79  O          0.13237890       0.91938000       0.88737160
    80  O          0.86762110       0.08062000       0.38737160
    81  O          0.38387120      -0.00403000       0.59634170
    82  O          0.61612880       0.00403000       0.09634170
    83  O          0.11612880      -0.00403000       0.09634170
    84  O          0.88387120       0.00403000       0.59634170
    85  O          0.38739110       0.22892000       0.44295170
    86  O          0.61260890       0.77108000       0.94295170
    87  O          0.11260890       0.22892000       0.94295170
    88  O          0.88739110       0.77108000       0.44295170
    89  N          0.04742150       0.02123000       0.32452000
    90  N          0.95257850       0.97877000       0.82452000
    91  N          0.45257850       0.02123000       0.82452000
    92  N          0.54742150       0.97877000       0.32452000
    93  C          0.24425170       0.08243000       0.49672000
    94  C          0.75574830       0.91757000      -0.00328000
    95  C          0.25574830       0.08243000      -0.00328000
    96  C          0.74425170       0.91757000       0.49672000
    97  C          0.18994160       0.03423000       0.40562000
    98  C          0.81005840       0.96577000       0.90562000
    99  C          0.31005840       0.03423000       0.90562000
   100  C          0.68994160       0.96577000       0.40562000
   101  C          0.10451170       0.06333000       0.42332000
   102  C          0.89548830       0.93667000       0.92332000
   103  C          0.39548830       0.06333000       0.92332000
   104  C          0.60451170       0.93667000       0.42332000
   105  C          0.07390170       0.13563000       0.52812000
   106  C          0.92609830       0.86437000       0.02812000
   107  C          0.42609830       0.13563000       0.02812000
   108  C          0.57390170       0.86437000       0.52812000
   109  C          0.12942160       0.18203000       0.61953000
   110  C          0.87057840       0.81797000       0.11953000
   111  C          0.37057840       0.18203000       0.11953000
   112  C          0.62942160       0.81797000       0.61953000
   113  C          0.21474160       0.15683000       0.60342000
   114  C          0.78525840       0.84317000       0.10342000
   115  C          0.28525840       0.15683000       0.10342000
   116  C          0.71474160       0.84317000       0.60342000
   117  H          0.21020000      -0.01710000       0.33340000
   118  H          0.78980000       0.01710000       0.83340000
   119  H          0.28980000      -0.01710000       0.83340000
   120  H          0.71020000       0.01710000       0.33340000
   121  H          0.01540000       0.15380000       0.53800000
   122  H          0.98460000       0.84620000       0.03800000
   123  H          0.48460000       0.15380000       0.03800000
   124  H          0.51540000       0.84620000       0.53800000
   125  H          0.10880000       0.23060000       0.69240000
   126  H          0.89120000       0.76940000       0.19240000
   127  H          0.39120000       0.23060000       0.19240000
   128  H          0.60880000       0.76940000       0.69240000
   129  H          0.25300000       0.19010000       0.66470000
   130  H          0.74700000       0.80990000       0.16470000
   131  H          0.24700000       0.19010000       0.16470000
   132  H          0.75300000       0.80990000       0.66470000
   133  H         -0.00220000       0.05340000       0.34430000
   134  H          0.00220000       0.94660000       0.84430000
   135  H          0.50220000       0.05340000       0.84430000
   136  H          0.49780000       0.94660000       0.34430000
   137  H          0.05981700       0.07040000       0.25530000
   138  H          0.94018300       0.92960000       0.75530000
   139  H          0.44018300       0.07040000       0.75530000
   140  H          0.55981700       0.92960000       0.25530000
   141  H          0.05211700       0.89960000       0.29730000
   142  H          0.94788300       0.10040000       0.79730000
   143  H          0.44788300       0.89960000       0.79730000
   144  H          0.55211700       0.10040000       0.29730000
