data_ANISAC
_symmetry_space_group_name_H-M    'P1'
_symmetry_Int_Tables_number       1
loop_
_symmetry_equiv_pos_site_id
_symmetry_equiv_pos_as_xyz
1 x,y,z
_cell_length_a                   8.5
_cell_length_b                   11.944
_cell_length_c                   6.756
_cell_angle_alpha                90.0
_cell_angle_beta                 90.0
_cell_angle_gamma                90.0
loop_
_atom_site_label
_atom_site_type_symbol
_atom_site_fract_x
_atom_site_fract_y
_atom_site_fract_z
     1  C          0.14600000       0.52800000       0.25000000
     2  C          0.85400000       0.47200000       0.75000000
     3  C          0.64600000       0.97200000       0.25000000
     4  C          0.35400000       0.02800000       0.75000000
     5  C          0.17900000       0.41200000       0.25000000
     6  C          0.82100000       0.58800000       0.75000000
     7  C          0.67900000       0.08800000       0.25000000
     8  C          0.32100000       0.91200000       0.75000000
     9  C          0.05600000       0.33800000       0.25000000
    10  C          0.94400000       0.66200000       0.75000000
    11  C          0.55600000       0.16200000       0.25000000
    12  C          0.44400000       0.83800000       0.75000000
    13  C          0.90300000       0.37600000       0.25000000
    14  C          0.09700000       0.62400000       0.75000000
    15  C          0.40300000       0.12400000       0.25000000
    16  C          0.59700000       0.87600000       0.75000000
    17  C          0.87300000       0.49200000       0.25000000
    18  C          0.12700000       0.50800000       0.75000000
    19  C          0.37300000       0.00800000       0.25000000
    20  C          0.62700000      -0.00800000       0.75000000
    21  C         -0.00600000       0.56700000       0.25000000
    22  C          0.00600000       0.43300000       0.75000000
    23  C          0.49400000       0.93300000       0.25000000
    24  C          0.50600000       0.06700000       0.75000000
    25  H          0.29600000       0.38300000       0.25000000
    26  H          0.70400000       0.61700000       0.75000000
    27  H          0.79600000       0.11700000       0.25000000
    28  H          0.20400000       0.88300000       0.75000000
    29  H          0.08200000       0.25200000       0.25000000
    30  H          0.91800000       0.74800000       0.75000000
    31  H          0.58200000       0.24800000       0.25000000
    32  H          0.41800000       0.75200000       0.75000000
    33  H          0.81100000       0.31600000       0.25000000
    34  H          0.18900000       0.68400000       0.75000000
    35  H          0.31100000       0.18400000       0.25000000
    36  H          0.68900000       0.81600000       0.75000000
    37  H          0.97100000       0.65200000       0.25000000
    38  H          0.02900000       0.34800000       0.75000000
    39  H          0.47100000       0.84800000       0.25000000
    40  H          0.52900000       0.15200000       0.75000000
    41  H          0.65900000       0.50000000       0.36500000
    42  H          0.34100000       0.50000000       0.86500000
    43  H          0.15900000      -0.00000000       0.13500000
    44  H          0.84100000       0.00000000       0.63500000
    45  H          0.34100000       0.50000000       0.63500000
    46  H          0.65900000       0.50000000       0.13500000
    47  H          0.84100000       0.00000000       0.86500000
    48  H          0.15900000      -0.00000000       0.36500000
    49  H          0.71100000       0.61400000       0.25000000
    50  H          0.28900000       0.38600000       0.75000000
    51  H          0.21100000       0.88600000       0.25000000
    52  H          0.78900000       0.11400000       0.75000000
    53  N          0.71200000       0.53000000       0.25000000
    54  N          0.28800000       0.47000000       0.75000000
    55  N          0.21200000       0.97000000       0.25000000
    56  N          0.78800000       0.03000000       0.75000000
    57  O          0.24000000       0.73200000       0.25000000
    58  O          0.76000000       0.26800000       0.75000000
    59  O          0.74000000       0.76800000       0.25000000
    60  O          0.26000000       0.23200000       0.75000000
    61  O          0.40000000       0.59900000       0.42700000
    62  O          0.60000000       0.40100000       0.92700000
    63  O          0.90000000       0.90100000       0.07300000
    64  O          0.10000000       0.09900000       0.57300000
    65  O          0.60000000       0.40100000       0.57300000
    66  O          0.40000000       0.59900000       0.07300000
    67  O          0.10000000       0.09900000       0.92700000
    68  O          0.90000000       0.90100000       0.42700000
    69  S          0.31140000       0.62260000       0.25000000
    70  S          0.68860000       0.37740000       0.75000000
    71  S          0.81140000       0.87740000       0.25000000
    72  S          0.18860000       0.12260000       0.75000000
