data_ANISAC04
_symmetry_space_group_name_H-M    'P1'
_symmetry_Int_Tables_number       1
loop_
_symmetry_equiv_pos_site_id
_symmetry_equiv_pos_as_xyz
1 x,y,z
_cell_length_a                   7.41796
_cell_length_b                   7.96836
_cell_length_c                   11.46546
_cell_angle_alpha                90.0
_cell_angle_beta                 98.1316
_cell_angle_gamma                90.0
loop_
_atom_site_label
_atom_site_type_symbol
_atom_site_fract_x
_atom_site_fract_y
_atom_site_fract_z
     1  S          0.37092000       0.37604180       0.33040150
     2  S          0.37092000       0.62395820       0.83040150
     3  O          0.21446000       0.29926000       0.25914000
     4  O          0.21446000       0.70074000       0.75914000
     5  O          0.33637000       0.54206000       0.37244000
     6  O          0.33637000       0.45794000       0.87244000
     7  O          0.53046000       0.36645000       0.26954000
     8  O          0.53046000       0.63355000       0.76954000
     9  N          0.39448000       0.80004000       0.54545000
    10  N          0.39448000       0.19996000       0.04545000
    11  H          0.44280000       0.75700000       0.48320000
    12  H          0.44280000       0.24300000       0.98320000
    13  H          0.27230000       0.78100000       0.53530000
    14  H          0.27230000       0.21900000       0.03530000
    15  H          0.44700000       0.74980000       0.61310000
    16  H          0.44700000       0.25020000       0.11310000
    17  C          0.42038000       0.24838000       0.45686000
    18  C          0.42038000       0.75162000       0.95686000
    19  C          0.37879000       0.07729000       0.45206000
    20  C          0.37879000       0.92271000       0.95206000
    21  H          0.31810000       0.02760000       0.38190000
    22  H          0.31810000       0.97240000       0.88190000
    23  C          0.42879000       0.98172000       0.55306000
    24  C          0.42879000       0.01828000       0.05306000
    25  C          0.51609000       0.05138000       0.65546000
    26  C          0.51609000       0.94862000       0.15546000
    27  H          0.55010000      -0.01690000       0.72290000
    28  H          0.55010000       0.01690000       0.22290000
    29  C          0.55371000       0.22158000       0.65957000
    30  C          0.55371000       0.77842000       0.15957000
    31  H          0.61060000       0.27080000       0.73080000
    32  H          0.61060000       0.72920000       0.23080000
    33  C          0.50939000       0.31968000       0.56116000
    34  C          0.50939000       0.68032000       0.06116000
    35  H          0.53900000       0.43570000       0.56370000
    36  H          0.53900000       0.56430000       0.06370000
    37  S          0.86031180       0.80676820       0.51272140
    38  S          0.86031180       0.19323180       0.01272140
    39  O          0.70056000       0.79895000       0.42344000
    40  O          0.70056000       0.20105000       0.92344000
    41  O          0.82796000       0.74154000       0.62574000
    42  O          0.82796000       0.25846000       0.12574000
    43  O          0.01976000       0.73165000       0.46924000
    44  O          0.01976000       0.26835000       0.96924000
    45  N          0.90547000       0.41407000       0.35825000
    46  N          0.90547000       0.58593000       0.85825000
    47  H          0.97150000       0.38130000       0.30100000
    48  H          0.97150000       0.61870000       0.80100000
    49  H          0.93890000       0.51960000       0.38240000
    50  H          0.93890000       0.48040000       0.88240000
    51  H          0.78480000       0.41280000       0.32890000
    52  H          0.78480000       0.58720000       0.82890000
    53  C          0.91719000       0.02148000       0.53456000
    54  C          0.91719000       0.97852000       0.03456000
    55  C          0.88249000       0.13258000       0.44086000
    56  C          0.88249000       0.86742000       0.94086000
    57  H          0.82120000       0.09640000       0.36660000
    58  H          0.82120000       0.90360000       0.86660000
    59  C          0.93939000       0.29848000       0.45826000
    60  C          0.93939000       0.70152000       0.95826000
    61  C          0.02859000       0.35358000       0.56606000
    62  C          0.02859000       0.64642000       0.06606000
    63  H          0.06630000       0.46710000       0.57610000
    64  H          0.06630000       0.53290000       0.07610000
    65  C          0.06189000       0.24128000       0.65876000
    66  C          0.06189000       0.75872000       0.15876000
    67  H          0.12190000       0.27800000       0.73300000
    68  H          0.12190000       0.72200000       0.23300000
    69  C          0.00679000       0.07229000       0.64326000
    70  C          0.00679000       0.92771000       0.14326000
    71  H          0.03060000      -0.00560000       0.70630000
    72  H          0.03060000       0.00560000       0.20630000
