data_ANONEX02
_symmetry_space_group_name_H-M    'P1'
_symmetry_Int_Tables_number       1
loop_
_symmetry_equiv_pos_site_id
_symmetry_equiv_pos_as_xyz
1 x,y,z
_cell_length_a                   7.23001
_cell_length_b                   7.97621
_cell_length_c                   12.57292
_cell_angle_alpha                87.3181
_cell_angle_beta                 77.6491
_cell_angle_gamma                63.5761
loop_
_atom_site_label
_atom_site_type_symbol
_atom_site_fract_x
_atom_site_fract_y
_atom_site_fract_z
     1  S          0.45032800       0.06905200       0.15169500
     2  O          0.02803000       0.90697000       0.73369170
     3  O          0.11403000       0.04133000       0.58300170
     4  O          0.88253000       0.10467000       0.30044150
     5  O          0.83993000       0.26927000       0.15068150
     6  O          0.47163000       0.91017000       0.21511160
     7  O          0.32003000       0.12077000       0.07373150
     8  H          0.67740000       0.11170000       0.03581900
     9  H          0.07370000       0.14240000       0.62330000
    10  H          0.84690000       0.34640000       0.19440000
    11  N          0.68633000       0.03037000       0.08370180
    12  C          0.08974000       0.90256000       0.63583000
    13  C          0.14445000       0.73485000       0.56603000
    14  H          0.13620000       0.62920000       0.60060000
    15  C          0.20354000       0.72436000       0.45923000
    16  H          0.21360000       0.83000000       0.42560000
    17  C          0.25504000       0.56216000       0.38762000
    18  C          0.25684000       0.39416000       0.42702000
    19  H          0.21870000       0.38330000       0.50320000
    20  C          0.31354000       0.24396000       0.35562000
    21  H          0.31810000       0.12910000       0.38240000
    22  C          0.36364000       0.26346000       0.24392000
    23  C          0.35614000       0.42976000       0.20342000
    24  H          0.38530000       0.44270000       0.12700000
    25  C          0.30534000       0.57826000       0.27582000
    26  H          0.30500000       0.69160000       0.24850000
    27  C          0.86094000       0.12176000       0.20562000
    28  C          0.86244000       0.96376000       0.14062000
    29  H          0.84940000       0.86870000       0.19240000
    30  C          0.07174000       0.86886000       0.05792000
    31  H          0.08030000       0.75670000       0.02400000
    32  H          0.18920000       0.83290000       0.09500000
    33  H          0.08020000       0.95600000       0.00160000
    34  H          0.82250000       0.30770000       0.39420000
    35  H          0.97130000       0.10250000       0.81730000
    36  H          0.11550000       0.60740000       0.80320000
    37  S          0.41147800       0.42366800       0.82993500
    38  O          0.83513000       0.53747000       0.27013160
    39  O          0.76963000       0.41197000       0.42814160
    40  O          0.03863000       0.32993000       0.71871160
    41  O          0.96457000       0.18033000       0.86457170
    42  O          0.48243000       0.54903000       0.77080160
    43  O          0.46653000       0.36303000       0.93272160
    44  N          0.15524000       0.52833000       0.85022190
    45  C          0.78114000       0.54996000       0.36992000
    46  C          0.72684000       0.72256000       0.43262000
    47  H          0.73050000       0.82660000       0.39380000
    48  C          0.67244000       0.74066000       0.54182000
    49  H          0.66980000       0.63500000       0.57900000
    50  C          0.61644000       0.90876000       0.60932000
    51  C          0.55614000       0.90496000       0.72272000
    52  H          0.55320000       0.79470000       0.75320000
    53  C          0.50084000       0.05814000       0.79072000
    54  H          0.46260000       0.05300000       0.86750000
    55  C          0.50184000       0.21964000       0.74532000
    56  C          0.56414000       0.22744000       0.63272000
    57  H          0.56650000       0.33800000       0.60250000
    58  C          0.62234000       0.07054000       0.56582000
    59  H          0.66690000       0.07350000       0.48930000
    60  C          0.01064000       0.30974000       0.81642000
    61  C          0.02734000       0.43514000       0.89942000
    62  H          0.09470000       0.35450000       0.95690000
    63  C          0.80256000       0.58134000       0.95442000
    64  H          0.81050000       0.64830000       0.01530000
    65  H          0.71460000       0.51750000       0.98170000
    66  H          0.74020000       0.67070000       0.90110000
