data_ANONEX01
_symmetry_space_group_name_H-M    'P1'
_symmetry_Int_Tables_number       1
loop_
_symmetry_equiv_pos_site_id
_symmetry_equiv_pos_as_xyz
1 x,y,z
_cell_length_a                   7.25362
_cell_length_b                   8.06152
_cell_length_c                   12.23442
_cell_angle_alpha                79.4531
_cell_angle_beta                 80.6631
_cell_angle_gamma                71.8191
loop_
_atom_site_label
_atom_site_type_symbol
_atom_site_fract_x
_atom_site_fract_y
_atom_site_fract_z
     1  S          0.27092900       0.23054900       0.24512600
     2  O          0.11185000       0.40466000       0.84032000
     3  O          0.18815000       0.26016000       0.69292000
     4  O          0.71744000       0.16123000       0.38356190
     5  O          0.88804000       0.00943000       0.24617190
     6  O          0.23104000       0.37283000       0.30792000
     7  O          0.43844000       0.19503000       0.16462000
     8  N          0.08324000       0.26813000       0.17702000
     9  H          0.11240000       0.20540000       0.12630000
    10  H          0.09413000       0.30530000       0.87570000
    11  H          0.68110000       0.07260000       0.41350000
    12  C          0.15795000       0.39565000       0.73743000
    13  C          0.17375000       0.56245000       0.66673000
    14  H          0.14640000       0.66250000       0.70130000
    15  C          0.22385000       0.57615000       0.55913000
    16  H          0.24920000       0.47560000       0.52550000
    17  C          0.24345000       0.73886000       0.48603000
    18  C          0.19046000       0.89995000       0.52473000
    19  H          0.14500000       0.90720000       0.59980000
    20  C          0.20475000       0.05125000       0.45233000
    21  H          0.16690000       0.16010000       0.47780000
    22  C          0.27615000       0.03624000       0.34183000
    23  C          0.33545000       0.87706000       0.30283000
    24  H          0.38740000       0.86910000       0.22870000
    25  C          0.31705000       0.72735000       0.37563000
    26  H          0.35450000       0.61890000       0.34950000
    27  C          0.82965000       0.14394000       0.29073000
    28  C          0.88664000       0.31094000       0.23593000
    29  H          0.88210000       0.38040000       0.29470000
    30  C          0.74026000       0.42075000       0.15564000
    31  H          0.77050000       0.52890000       0.12530000
    32  H          0.61100000       0.44640000       0.19480000
    33  H          0.74680000       0.35600000       0.09580000
    34  H          0.82580000       0.80840000       0.31740000
    35  H          0.16513000       0.05480000       0.78470000
    36  H          0.96760000       0.69040000       0.89940000
    37  S          0.67236100       0.84225100       0.92338600
    38  O          0.82245000       0.70734000       0.35452000
    39  O          0.69954000       0.85123000       0.50122000
    40  O          0.12404000       0.96926000       0.82232000
    41  O          0.07934000       0.11093000       0.96864190
    42  O          0.62964000       0.72667000       0.86292000
    43  O          0.56284000       0.87897000       0.02822000
    44  N          0.89935000       0.75716000       0.94232000
    45  C          0.75345000       0.71414000       0.45863000
    46  C          0.74206000       0.54435000       0.52273000
    47  H          0.77900000       0.44650000       0.48520000
    48  C          0.68205000       0.52324000       0.63063000
    49  H          0.64300000       0.62330000       0.66600000
    50  C          0.67075000       0.35654000       0.70063000
    51  C          0.70795000       0.20185000       0.65503000
    52  H          0.73850000       0.20320000       0.57810000
    53  C          0.70006000       0.04765000       0.72153000
    54  H          0.72310000       0.94530000       0.69010000
    55  C          0.65715000       0.04554000       0.83663000
    56  C          0.61365000       0.19774000       0.88363000
    57  H          0.57920000       0.19640000       0.96030000
    58  C          0.62196000       0.35364000       0.81463000
    59  H          0.59410000       0.45690000       0.84570000
    60  C          0.07295000       0.98425000       0.92363000
    61  C         -0.00015000       0.83996000       0.00013000
    62  H          0.90840000       0.89310000       0.06110000
    63  C          0.17288000       0.69934000       0.05085000
    64  H          0.12610000       0.61310000       0.10300000
    65  H          0.23890000       0.75420000       0.08890000
    66  H          0.26190000       0.64310000      -0.00770000
