data_ANONEX
_symmetry_space_group_name_H-M    'P1'
_symmetry_Int_Tables_number       1
loop_
_symmetry_equiv_pos_site_id
_symmetry_equiv_pos_as_xyz
1 x,y,z
_cell_length_a                   7.10202
_cell_length_b                   8.03302
_cell_length_c                   11.91543
_cell_angle_alpha                95.2521
_cell_angle_beta                 104.6501
_cell_angle_gamma                99.5771
loop_
_atom_site_label
_atom_site_type_symbol
_atom_site_fract_x
_atom_site_fract_y
_atom_site_fract_z
     1  S          0.03619900       0.37761700       0.60993500
     2  O          0.67763000       0.24353000       0.21147190
     3  O          0.49083000       0.36273000       0.07297190
     4  O          0.58763000       0.66322000       0.65213160
     5  O          0.35163000       0.74952000       0.52052160
     6  O          0.12143000       0.24552000       0.66534180
     7  O          0.82617000       0.35633000       0.56321180
     8  N          0.12813000       0.40993000       0.49969180
     9  C          0.54924000       0.23474000       0.11203000
    10  H          0.71511000       0.33950000       0.25650000
    11  H          0.63960000       0.76430000       0.68940000
    12  H          0.05940000       0.46540000       0.45320000
    13  C          0.47844000       0.06433000       0.04393000
    14  H          0.52330000       0.97000000       0.07700000
    15  C          0.35394000       0.03744000       0.93783000
    16  H          0.31110000       0.13410000       0.90730000
    17  C          0.27574000       0.87264000       0.86262000
    18  C          0.33544000       0.72164000       0.89503000
    19  H          0.42740000       0.72380000       0.96880000
    20  C          0.26024000       0.56914000       0.81963000
    21  H          0.30160000       0.46720000       0.84120000
    22  C          0.12474000       0.56664000       0.71272000
    23  C          0.06104000       0.71484000       0.68022000
    24  H          0.96560000       0.71090000       0.60750000
    25  C          0.13694000       0.86703000       0.75422000
    26  H          0.09520000       0.96830000       0.73170000
    27  C          0.42924000       0.63653000       0.56582000
    28  C          0.34314000       0.44913000       0.51742000
    29  H          0.40590000       0.37720000       0.57450000
    30  C          0.39135000       0.40714000       0.40152000
    31  H          0.34950000       0.28430000       0.37480000
    32  H          0.53460000       0.44090000       0.41250000
    33  H          0.32080000       0.46920000       0.34260000
    34  H          0.44860000      -0.01970000       0.58430000
    35  H          0.59480000       0.57430000       0.15040000
    36  H          0.84740000       0.04230000       0.24220000
    37  S          0.09860800      -0.01776300       0.19890500
    38  O          0.49073000       0.07903000       0.62431180
    39  O          0.70953000       0.97603000       0.75697190
    40  O          0.64453000       0.67273000       0.18908170
    41  O          0.83713000       0.55312000       0.32474150
    42  O          0.08353000       0.12142000       0.13247170
    43  O          0.28293000       0.97632000       0.28159180
    44  N          0.92863000      -0.01977000       0.26646190
    45  C          0.63134000       0.09654000       0.72112000
    46  C          0.69174000       0.26924000       0.78653000
    47  H          0.62930000       0.35690000       0.75510000
    48  C          0.83174000       0.30723000       0.88892000
    49  H          0.89200000       0.21700000       0.91790000
    50  C          0.90134000       0.47644000       0.96113000
    51  C          0.82494000       0.61914000       0.92562000
    52  H          0.72810000       0.60830000       0.85250000
    53  C          0.88884000       0.77493000      -0.00428000
    54  H          0.83610000       0.87110000       0.97180000
    55  C          0.03144000       0.78913000       0.10202000
    56  C          0.11314000       0.65023000       0.13742000
    57  H          0.21290000       0.66240000       0.20940000
    58  C          0.04714000       0.49383000       0.06622000
    59  H          0.10200000       0.39830000       0.08950000
    60  C          0.78594000       0.68183000       0.28132000
    61  C          0.89524000       0.85743000       0.34502000
    62  H          0.02630000       0.84700000       0.39690000
    63  C          0.76895000       0.92214000       0.42212000
    64  H          0.84280000       0.02940000       0.47100000
    65  H          0.73970000       0.83680000       0.47220000
    66  H          0.64430000       0.94120000       0.37160000
