data_ARUWUG01
_symmetry_space_group_name_H-M    'P1'
_symmetry_Int_Tables_number       1
loop_
_symmetry_equiv_pos_site_id
_symmetry_equiv_pos_as_xyz
1 x,y,z
_cell_length_a                   10.25683
_cell_length_b                   10.47003
_cell_length_c                   12.19965
_cell_angle_alpha                96.5122
_cell_angle_beta                 106.2792
_cell_angle_gamma                118.98801
loop_
_atom_site_label
_atom_site_type_symbol
_atom_site_fract_x
_atom_site_fract_y
_atom_site_fract_z
     1  N          0.46797170       0.14671160       0.11239120
     2  N          0.53202830       0.85328840       0.88760880
     3  C          0.37045190       0.96089820       0.19736140
     4  C          0.62954810       0.03910180       0.80263860
     5  C          0.24512190       0.73973810       0.28162150
     6  C          0.75487810       0.26026190       0.71837850
     7  C          0.35762000       0.89464810       0.28537150
     8  C          0.64238000       0.10535190       0.71462850
     9  C          0.49434190       0.12372190       0.22233150
    10  C          0.50565810       0.87627810       0.77766850
    11  C          0.26872000       0.70305810       0.38887150
    12  C          0.73128000       0.29694190       0.61112850
    13  H          0.35320000       0.77760000       0.45860000
    14  H          0.64680000       0.22240000       0.54140000
    15  O          0.59963160       0.22028150       0.31729110
    16  O          0.40036840       0.77971850       0.68270890
    17  N          0.27941170       0.89824840       0.07374120
    18  N          0.72058830       0.10175160       0.92625880
    19  C          0.33882190       0.00905190       0.02858140
    20  C          0.66117810      -0.00905190       0.97141860
    21  C          0.16832000       0.55758000       0.39290160
    22  C          0.83168000       0.44242000       0.60709840
    23  C          0.11892000       0.62648000       0.17735150
    24  C          0.88108000       0.37352000       0.82264850
    25  H          0.10170000       0.64870000       0.10490000
    26  H          0.89830000       0.35130000       0.89510000
    27  C          0.02002000       0.48168000       0.18225160
    28  C         -0.02002000       0.51832000       0.81774840
    29  H          0.93610000       0.40630000       0.11260000
    30  H          0.06390000       0.59370000       0.88740000
    31  C          0.04332000       0.44638000       0.28917170
    32  C          0.95668000       0.55362000       0.71082830
    33  H         -0.02490000       0.34830000       0.29120000
    34  H          0.02490000       0.65170000       0.70880000
    35  O          0.18962000       0.51649850       0.49559120
    36  O          0.81038000       0.48350150       0.50440880
    37  H          0.25570000       0.59330000       0.55280000
    38  H          0.74430000       0.40670000       0.44720000
    39  C          0.56172000       0.29162000       0.09078180
    40  C          0.43828000       0.70838000       0.90921820
    41  H          0.64640000       0.36590000       0.16480000
    42  H          0.35360000       0.63410000       0.83520000
    43  H          0.49250000       0.32630000       0.05760000
    44  H          0.50750000       0.67370000       0.94240000
    45  H          0.60810000       0.27810000       0.03560000
    46  H          0.39190000       0.72190000       0.96440000
    47  C          0.27922000      -0.00162000       0.90058840
    48  C          0.72078000       0.00162000       0.09941160
    49  H          0.19970000       0.89360000       0.85460000
    50  H          0.80030000       0.10640000       0.14540000
    51  H          0.36780000       0.03710000       0.87470000
    52  H          0.63220000       0.96290000       0.12530000
    53  H          0.23150000       0.05780000       0.88930000
    54  H          0.76850000       0.94220000       0.11070000
    55  H          0.43920000       0.96080000       0.36601800
    56  H          0.56080000       0.03920000       0.63398200
    57  H          0.38620000       0.31920000       0.42701800
    58  H          0.61380000       0.68080000       0.57298200
    59  C          0.38742000       0.45099190       0.26452150
    60  C          0.61258000       0.54900810       0.73547850
    61  H          0.46650000       0.51520000       0.33970000
    62  H          0.53350000       0.48480000       0.66030000
    63  N          0.11772170       0.93339840       0.46636130
    64  N          0.88227830       0.06660160       0.53363870
    65  C          0.20192000       0.11031190       0.37125150
    66  C          0.79808000       0.88968810       0.62874850
    67  O          0.47796160       0.65923140       0.17861110
    68  O          0.52203840       0.34076860       0.82138890
    69  H          0.53170000       0.70790000       0.24950000
    70  H          0.46830000       0.29210000       0.75050000
    71  C          0.01628190       0.87840810       0.34612150
    72  C         -0.01628190       0.12159190       0.65387850
    73  C          0.37712000       0.50930190       0.16826160
    74  C          0.62288000       0.49069810       0.83173840
    75  C          0.29532000       0.24572000       0.35598160
    76  C          0.70468000       0.75428000       0.64401840
    77  C          0.28052000       0.29678190       0.25000150
    78  C          0.71948000       0.70321810       0.74999850
    79  C          0.23812000       0.08154190       0.48835150
    80  C          0.76188000       0.91845810       0.51164850
    81  N          0.06015170       0.97692840       0.28774120
    82  N          0.93984830       0.02307160       0.71225880
    83  O          0.34813170       0.16585160       0.58517120
    84  O          0.65186830       0.83414840       0.41482880
    85  C          0.16472000       0.20112000       0.13634160
    86  C          0.83528000       0.79888000       0.86365840
    87  H          0.09340000       0.09790000       0.12500000
    88  H          0.90660000       0.90210000       0.87500000
    89  C          0.26122000       0.41302000       0.05625150
    90  C          0.73878000       0.58698000       0.94374850
    91  H          0.25370000       0.45140000      -0.00880000
    92  H          0.74630000       0.54860000       0.00880000
    93  C          0.15642000       0.25992000       0.04086160
    94  C          0.84358000       0.74008000       0.95913840
    95  H          0.07920000       0.19560000       0.96520000
    96  H          0.92080000       0.80440000       0.03480000
    97  C          0.10432000       0.85248000       0.55614170
    98  C          0.89568000       0.14752000       0.44385830
    99  H          0.21040000       0.88630000       0.61100000
   100  H          0.78960000       0.11370000       0.38900000
   101  H          0.04580000       0.74460000       0.51770000
   102  H          0.95420000       0.25540000       0.48230000
   103  H          0.04780000       0.87330000       0.59900000
   104  H          0.95220000       0.12670000       0.40100000
   105  C          0.87268000       0.71998000       0.29498180
   106  C          0.12732000       0.28002000       0.70501820
   107  H          0.80940000       0.70570000       0.21460000
   108  H          0.19060000       0.29430000       0.78540000
   109  H          0.80870000       0.70220000       0.34250000
   110  H          0.19130000       0.29780000       0.65750000
   111  H          0.90680000       0.64930000       0.29470000
   112  H          0.09320000       0.35070000       0.70530000
