data_ARUWUG02
_symmetry_space_group_name_H-M    'P1'
_symmetry_Int_Tables_number       1
loop_
_symmetry_equiv_pos_site_id
_symmetry_equiv_pos_as_xyz
1 x,y,z
_cell_length_a                   7.04048
_cell_length_b                   7.21417
_cell_length_c                   11.490211
_cell_angle_alpha                74.0206
_cell_angle_beta                 80.9426
_cell_angle_gamma                75.1934
loop_
_atom_site_label
_atom_site_type_symbol
_atom_site_fract_x
_atom_site_fract_y
_atom_site_fract_z
     1  H          0.22840000       0.88840000       0.94980000
     2  H          0.77160000       0.11160000       0.05020000
     3  H          0.83460000       0.78840000       0.33330000
     4  H          0.16540000       0.21160000       0.66670000
     5  C          0.13524000       0.76054000       0.18043000
     6  C          0.86476000       0.23946000       0.81957000
     7  H          0.02780000       0.82850000       0.13610000
     8  H          0.97220000       0.17150000       0.86390000
     9  C          0.32454000       0.73804000       0.12073000
    10  C          0.67546000       0.26196000       0.87927000
    11  N          0.69404000       0.86054000       0.73468000
    12  N          0.30596000       0.13946000       0.26532000
    13  C          0.34484000       0.81984000      -0.01003000
    14  C          0.65516000       0.18016000       0.01003000
    15  O          0.36084000      -0.01046000       0.72138000
    16  O          0.63916000       0.01046000       0.27862000
    17  C          0.50714000       0.81534000       0.91027000
    18  C          0.49286000       0.18466000       0.08973000
    19  C          0.10355000       0.68364000       0.30453000
    20  C          0.89645000       0.31636000       0.69547000
    21  C          0.48265000       0.63515000       0.18903000
    22  C          0.51735000       0.36485000       0.81097000
    23  H          0.61080000       0.61820000       0.15160000
    24  H          0.38920000       0.38180000       0.84840000
    25  C          0.49955000       0.90455000       0.78007000
    26  C          0.50045000       0.09545000       0.21993000
    27  O          0.92166000       0.69894000       0.36522000
    28  O          0.07834000       0.30106000       0.63478000
    29  N          0.70614000       0.72793000       0.93368000
    30  N          0.29386000       0.27207000       0.06632000
    31  C          0.26245000       0.58225000       0.36933000
    32  C          0.73755000       0.41775000       0.63067000
    33  H          0.24300000       0.52920000       0.45260000
    34  H          0.75700000       0.47080000       0.54740000
    35  C          0.44865000       0.55885000       0.31183000
    36  C          0.55135000       0.44115000       0.68817000
    37  H          0.55490000       0.48970000       0.35680000
    38  H          0.44510000       0.51030000       0.64320000
    39  C          0.80584000       0.75755000       0.82907000
    40  C          0.19416000       0.24245000       0.17093000
    41  C          0.02215000       0.68686000       0.80856000
    42  C          0.97785000       0.31314000       0.19144000
    43  H          0.07340000       0.61020000       0.88410000
    44  H          0.92660000       0.38980000       0.11590000
    45  H          0.08220000       0.79820000       0.77710000
    46  H          0.91780000       0.20180000       0.22290000
    47  H          0.05110000       0.60620000       0.75130000
    48  H          0.94890000       0.39380000       0.24870000
    49  C          0.76016000       0.91686000       0.60517000
    50  C          0.23984000       0.08314000       0.39483000
    51  H          0.85790000      -0.00670000       0.59350000
    52  H          0.14210000       0.00670000       0.40650000
    53  H          0.64970000      -0.00580000       0.56080000
    54  H          0.35030000       0.00580000       0.43920000
    55  H          0.81600000       0.79980000       0.57620000
    56  H          0.18400000       0.20020000       0.42380000
