data_ARUWUG
_symmetry_space_group_name_H-M    'P1'
_symmetry_Int_Tables_number       1
loop_
_symmetry_equiv_pos_site_id
_symmetry_equiv_pos_as_xyz
1 x,y,z
_cell_length_a                   7.5554
_cell_length_b                   17.1728
_cell_length_c                   16.7548
_cell_angle_alpha                90.0
_cell_angle_beta                 90.99912
_cell_angle_gamma                90.0
loop_
_atom_site_label
_atom_site_type_symbol
_atom_site_fract_x
_atom_site_fract_y
_atom_site_fract_z
     1  O          0.05806000       0.25932000       0.86818000
     2  O          0.44194000       0.75932000       0.63182000
     3  O          0.94194000       0.74068000       0.13182000
     4  O          0.55806000       0.24068000       0.36818000
     5  H          0.09550000       0.29220000       0.83730000
     6  H          0.40450000       0.79220000       0.66270000
     7  H          0.90450000       0.70780000       0.16270000
     8  H          0.59550000       0.20780000       0.33730000
     9  O          0.76516000       0.13642000       0.28692000
    10  O          0.73484000       0.63642000       0.21308000
    11  O          0.23484000       0.86358000       0.71308000
    12  O          0.26516000       0.36358000       0.78692000
    13  N          0.78356000       0.03233000       0.20013000
    14  N          0.71644000       0.53233000       0.29987000
    15  N          0.21644000       0.96767000       0.79987000
    16  N          0.28356000       0.46767000       0.70013000
    17  N          0.88266000       0.08883000       0.08843000
    18  N          0.61734000       0.58883000       0.41157000
    19  N          0.11734000       0.91117000       0.91157000
    20  N          0.38266000       0.41117000       0.58843000
    21  C          0.79787000       0.10833000       0.21943000
    22  C          0.70213000       0.60833000       0.28057000
    23  C          0.20213000       0.89167000       0.78057000
    24  C          0.29787000       0.39167000       0.71943000
    25  C          0.96757000       0.27073000       0.08043000
    26  C          0.53243000       0.77073000       0.41957000
    27  C          0.03243000       0.72927000       0.91957000
    28  C          0.46757000       0.22927000       0.58043000
    29  C          0.83457000       0.02393000       0.12063000
    30  C          0.66543000       0.52393000       0.37937000
    31  C          0.16543000       0.97607000       0.87937000
    32  C          0.33457000       0.47607000       0.62063000
    33  C          0.04438000       0.29103000       0.94206000
    34  C          0.45562000       0.79103000       0.55794000
    35  C          0.95562000       0.70897000       0.05794000
    36  C          0.54438000       0.20897000       0.44206000
    37  C         -0.01353000       0.24243000       0.00153000
    38  C          0.51353000       0.74243000       0.49847000
    39  C          0.01353000       0.75757000      -0.00153000
    40  C          0.48647000       0.25757000       0.50153000
    41  H          0.95950000       0.19070000       0.98990000
    42  H          0.54050000       0.69070000       0.51010000
    43  H          0.04050000       0.80930000       0.01010000
    44  H          0.45950000       0.30930000       0.48990000
    45  C          0.90257000       0.22294000       0.14454000
    46  C          0.59743000       0.72294000       0.35546000
    47  C          0.09743000       0.77706000       0.85546000
    48  C          0.40257000       0.27706000       0.64454000
    49  C          0.08918000       0.36704000       0.95866000
    50  C          0.41082000       0.86704000       0.54134000
    51  C          0.91082000       0.63296000       0.04134000
    52  C          0.58918000       0.13296000       0.45866000
    53  H          0.12890000       0.39950000       0.91840000
    54  H          0.37110000       0.89950000       0.58160000
    55  H          0.87110000       0.60050000       0.08160000
    56  H          0.62890000       0.10050000       0.41840000
    57  C          0.82929000       0.94727000       0.08204000
    58  C          0.67071000       0.44727000       0.41796000
    59  C          0.17071000       0.05273000       0.91796000
    60  C          0.32929000       0.55273000       0.58204000
    61  H          0.70830000       0.93280000       0.07140000
    62  H          0.79170000       0.43280000       0.42860000
    63  H          0.29170000       0.06720000       0.92860000
    64  H          0.20830000       0.56720000       0.57140000
    65  H          0.88380000       0.90950000       0.11660000
    66  H          0.61620000       0.40950000       0.38340000
    67  H          0.11620000       0.09050000       0.88340000
    68  H          0.38380000       0.59050000       0.61660000
    69  H          0.89190000       0.94950000       0.03270000
    70  H          0.60810000       0.44950000       0.46730000
    71  H          0.10810000       0.05050000       0.96730000
    72  H          0.39190000       0.55050000       0.53270000
    73  C          0.86577000       0.14613000       0.14853000
    74  C          0.63423000       0.64613000       0.35147000
    75  C          0.13423000       0.85387000       0.85147000
    76  C          0.36577000       0.35387000       0.64853000
    77  C          0.71899000       0.97107000       0.25284000
    78  C          0.78101000       0.47107000       0.24716000
    79  C          0.28101000       0.02893000       0.74716000
    80  C          0.21899000       0.52893000       0.75284000
    81  H          0.81230000       0.93450000       0.26370000
    82  H          0.68770000       0.43450000       0.23630000
    83  H          0.18770000       0.06550000       0.73630000
    84  H          0.31230000       0.56550000       0.76370000
    85  H          0.62120000       0.94480000       0.22730000
    86  H          0.87880000       0.44480000       0.27270000
    87  H          0.37880000       0.05520000       0.77270000
    88  H          0.12120000       0.55520000       0.72730000
    89  H          0.68080000      -0.00610000       0.30190000
    90  H          0.81920000       0.49390000       0.19810000
    91  H          0.31920000       0.00610000       0.69810000
    92  H          0.18080000       0.50610000       0.80190000
    93  C          0.01358000       0.34783000       0.09524000
    94  C          0.48642000       0.84783000       0.40476000
    95  C         -0.01358000       0.65217000       0.90476000
    96  C          0.51358000       0.15217000       0.59524000
    97  H          0.00270000       0.36800000       0.14640000
    98  H          0.49730000       0.86800000       0.35360000
    99  H         -0.00270000       0.63200000       0.85360000
   100  H          0.50270000       0.13200000       0.64640000
   101  C          0.07469000       0.39453000       0.03544000
   102  C          0.42531000       0.89453000       0.46456000
   103  C          0.92531000       0.60547000       0.96456000
   104  C          0.57469000       0.10547000       0.53544000
   105  H          0.10680000       0.44560000       0.04690000
   106  H          0.39320000       0.94560000       0.45310000
   107  H          0.89320000       0.55440000       0.95310000
   108  H          0.60680000       0.05440000       0.54690000
   109  H          0.89770000       0.25230000       0.19530000
   110  H          0.60230000       0.75230000       0.30470000
   111  H          0.10230000       0.74770000       0.80470000
   112  H          0.39770000       0.24770000       0.69530000
   113  N          0.46396000       0.18343000       0.01903000
   114  N          0.03604000       0.68343000       0.48097000
   115  N          0.53604000       0.81657000       0.98097000
   116  N          0.96396000       0.31657000       0.51903000
   117  O          0.48767000       0.34472000       0.14973000
   118  O          0.01233000       0.84472000       0.35027000
   119  O          0.51233000       0.65528000       0.85027000
   120  O         -0.01233000       0.15528000       0.64973000
   121  N          0.52546000       0.31183000       0.01763000
   122  N          0.97454000       0.81183000       0.48237000
   123  N          0.47454000       0.68817000       0.98237000
   124  N          0.02546000       0.18817000       0.51763000
   125  O          0.14308000       0.98927000       0.33763000
   126  O          0.35692000       0.48927000       0.16237000
   127  O          0.85692000       0.01073000       0.66237000
   128  O          0.64308000       0.51073000       0.83763000
   129  H          0.10040000       0.94550000       0.33880000
   130  H          0.39960000       0.44550000       0.16120000
   131  H          0.89960000       0.05450000       0.66120000
   132  H          0.60040000       0.55450000       0.83880000
   133  C          0.44277000       0.21503000       0.09634000
   134  C          0.05723000       0.71503000       0.40366000
   135  C          0.55723000       0.78497000       0.90366000
   136  C          0.94277000       0.28497000       0.59634000
   137  C          0.33767000       0.09773000       0.17564000
   138  C          0.16233000       0.59773000       0.32436000
   139  C          0.66233000       0.90227000       0.82436000
   140  C          0.83767000       0.40227000       0.67564000
   141  C          0.51028000       0.24384000       0.97636000
   142  C         -0.01028000       0.74384000       0.52364000
   143  C          0.48972000       0.75616000       0.02364000
   144  C          0.01028000       0.25616000       0.47636000
   145  C          0.21238000       0.00274000       0.26404000
   146  C          0.28762000       0.50274000       0.23596000
   147  C          0.78762000      -0.00274000       0.73596000
   148  C          0.71238000       0.49726000       0.76404000
   149  C          0.35168000       0.03923000       0.11833000
   150  C          0.14832000       0.53923000       0.38167000
   151  C          0.64832000       0.96077000       0.88167000
   152  C          0.85168000       0.46077000       0.61833000
   153  H          0.40160000       0.05050000       0.06930000
   154  H          0.09840000       0.55050000       0.43070000
   155  H          0.59840000       0.94950000       0.93070000
   156  H          0.90160000       0.44950000       0.56930000
   157  C          0.26958000       0.07793000       0.24993000
   158  C          0.23042000       0.57793000       0.25007000
   159  C          0.73042000       0.92207000       0.75007000
   160  C          0.76958000       0.42207000       0.74993000
   161  H          0.26270000       0.11530000       0.28990000
   162  H          0.23730000       0.61530000       0.21010000
   163  H          0.73730000       0.88470000       0.71010000
   164  H          0.76270000       0.38470000       0.78990000
   165  C          0.57731000       0.38893000       0.98836000
   166  C          0.92269000       0.88893000       0.51164000
   167  C          0.42269000       0.61107000       0.01164000
   168  C          0.07731000       0.11107000       0.48836000
   169  H          0.69720000       0.38700000       0.97030000
   170  H          0.80280000       0.88700000       0.52970000
   171  H          0.30280000       0.61300000       0.02970000
   172  H          0.19720000       0.11300000       0.47030000
   173  H          0.56860000       0.42620000       0.03080000
   174  H          0.93140000       0.92620000       0.46920000
   175  H          0.43140000       0.57380000       0.96920000
   176  H          0.06860000       0.07380000       0.53080000
   177  H          0.50020000       0.40390000       0.94490000
   178  H         -0.00020000       0.90390000       0.55510000
   179  H          0.49980000       0.59610000       0.05510000
   180  H          0.00020000       0.09610000       0.44490000
   181  C          0.48557000       0.29774000       0.09594000
   182  C          0.01443000       0.79774000       0.40406000
   183  C          0.51443000       0.70226000       0.90406000
   184  C         -0.01443000       0.20226000       0.59594000
   185  C          0.22238000       0.94646000       0.20714000
   186  C          0.27762000       0.44646000       0.29286000
   187  C          0.77762000       0.05354000       0.79286000
   188  C          0.72238000       0.55354000       0.70714000
   189  H          0.18270000       0.89630000       0.21730000
   190  H          0.31730000       0.39630000       0.28270000
   191  H          0.81730000       0.10370000       0.78270000
   192  H          0.68270000       0.60370000       0.71730000
   193  C          0.39027000       0.17873000       0.16334000
   194  C          0.10973000       0.67873000       0.33666000
   195  C          0.60973000       0.82127000       0.83666000
   196  C          0.89027000       0.32127000       0.66334000
   197  C          0.29309000       0.96546000       0.13304000
   198  C          0.20691000       0.46546000       0.36696000
   199  C          0.70691000       0.03454000       0.86696000
   200  C          0.79309000       0.53454000       0.63304000
   201  H          0.30010000       0.92760000       0.09350000
   202  H          0.19990000       0.42760000       0.40650000
   203  H          0.69990000       0.07240000       0.90650000
   204  H          0.80010000       0.57240000       0.59350000
   205  C          0.54559000       0.24084000       0.89026000
   206  C          0.95441000       0.74084000       0.60974000
   207  C          0.45441000       0.75916000       0.10974000
   208  C          0.04559000       0.25916000       0.39026000
   209  H          0.66730000       0.25360000       0.88140000
   210  H          0.83270000       0.75360000       0.61860000
   211  H          0.33270000       0.74640000       0.11860000
   212  H          0.16730000       0.24640000       0.38140000
   213  H          0.47070000       0.27750000       0.86270000
   214  H          0.02930000       0.77750000       0.63730000
   215  H          0.52930000       0.72250000       0.13730000
   216  H          0.97070000       0.22250000       0.36270000
   217  H          0.52150000       0.18930000       0.87050000
   218  H          0.97850000       0.68930000       0.62950000
   219  H          0.47850000       0.81070000       0.12950000
   220  H          0.02150000       0.31070000       0.37050000
   221  H          0.38970000       0.21430000       0.21530000
   222  H          0.11030000       0.71430000       0.28470000
   223  H          0.61030000       0.78570000       0.78470000
   224  H          0.88970000       0.28570000       0.71530000
