data_ASETOI02
_symmetry_space_group_name_H-M    'P1'
_symmetry_Int_Tables_number       1
loop_
_symmetry_equiv_pos_site_id
_symmetry_equiv_pos_as_xyz
1 x,y,z
_cell_length_a                   7.912413
_cell_length_b                   14.5112
_cell_length_c                   17.3303
_cell_angle_alpha                86.9393
_cell_angle_beta                 77.6653
_cell_angle_gamma                75.2673
loop_
_atom_site_label
_atom_site_type_symbol
_atom_site_fract_x
_atom_site_fract_y
_atom_site_fract_z
     1  B          0.03763000       0.87044180       0.27480160
     2  B          0.96237000       0.12955820       0.72519840
     3  N          0.10732000       0.89997130       0.18928110
     4  N          0.89268000       0.10002870       0.81071890
     5  N          0.13592000       0.91119130       0.32817110
     6  N          0.86408000       0.08880870       0.67182890
     7  F          0.85439830       0.91174100       0.29678800
     8  F          0.14560170       0.08825900       0.70321200
     9  F          0.06929190       0.77302900       0.28226800
    10  F          0.93070810       0.22697100       0.71773200
    11  O          0.91222000       0.22247140       0.13936150
    12  O          0.08778000       0.77752860       0.86063850
    13  O          0.67122000       0.34206110       0.13704100
    14  O          0.32878000       0.65793890       0.86295900
    15  C          0.75363000       0.25030170       0.14426140
    16  C          0.24637000       0.74969830       0.85573860
    17  C          0.78454000       0.40788190       0.12511160
    18  C          0.21546000       0.59211810       0.87488840
    19  H          0.71180000       0.47290000       0.12080000
    20  H          0.28820000       0.52710000       0.87920000
    21  H          0.87530000       0.39120000       0.07650000
    22  H          0.12470000       0.60880000       0.92350000
    23  H          0.84310000       0.40420000       0.17000000
    24  H          0.15690000       0.59580000       0.83000000
    25  C          0.62693000       0.18820160       0.16047120
    26  C          0.37307000       0.81179840       0.83952880
    27  C          0.44333000       0.22480150       0.16995130
    28  C          0.55667000       0.77519850       0.83004870
    29  H          0.39630000       0.29100000       0.16280000
    30  H          0.60370000       0.70900000       0.83720000
    31  C          0.32823000       0.16561150       0.18968130
    32  C          0.67177000       0.83438850       0.81031870
    33  H          0.20300000       0.19130000       0.19610000
    34  H          0.79700000       0.80870000       0.80390000
    35  C          0.39583000       0.06855150       0.20014120
    36  C          0.60417000       0.93144850       0.79985880
    37  C          0.58033000       0.03111150       0.18904130
    38  C          0.41967000       0.96888850       0.81095870
    39  H          0.62710000       0.96460000       0.19500000
    40  H          0.37290000       0.03540000       0.80500000
    41  C          0.69493000       0.09014160       0.16942130
    42  C          0.30507000       0.90985840       0.83057870
    43  H          0.82020000       0.06420000       0.16200000
    44  H          0.17980000       0.93580000       0.83800000
    45  C          0.27483000       0.00413150       0.22493130
    46  C          0.72517000      -0.00413150       0.77506870
    47  C          0.24433000       0.97395150       0.30367130
    48  C          0.75567000       0.02604850       0.69632870
    49  C          0.30083000      -0.00193840       0.37114140
    50  C          0.69917000       0.00193840       0.62885860
    51  C          0.22303000       0.94929170       0.43381140
    52  C          0.77697000       0.05070830       0.56618860
    53  H          0.23570000       0.95130000       0.48690000
    54  H          0.76430000       0.04870000       0.51310000
    55  C          0.12213000       0.89649170       0.40620140
    56  C          0.87787000       0.10350830       0.59379860
    57  C          0.07073000       0.87168160       0.12352140
    58  C          0.92927000       0.12831840       0.87647860
    59  C          0.13743000       0.92447170       0.05925140
    60  C          0.86257000       0.07552830       0.94074860
    61  H          0.12910000       0.91790000       0.00600000
    62  H          0.87090000       0.08210000      -0.00600000
    63  C          0.21673000       0.98737160       0.08576130
    64  C          0.78327000       0.01262840       0.91423870
    65  C          0.20193000       0.97012150       0.16873130
    66  C          0.79807000       0.02987850       0.83126870
    67  C          0.42273000       0.06016180       0.37762150
    68  C          0.57727000       0.93983820       0.62237850
    69  H          0.43440000       0.06190000       0.43270000
    70  H          0.56560000       0.93810000       0.56730000
    71  H          0.37280000       0.12490000       0.36020000
    72  H          0.62720000       0.87510000       0.63980000
    73  H          0.54060000       0.03430000       0.34420000
    74  H          0.45940000       0.96570000       0.65580000
    75  C          0.01374000       0.83360190       0.45199150
    76  C          0.98626000       0.16639810       0.54800850
    77  H          0.95870000       0.80610000       0.41630000
    78  H          0.04130000       0.19390000       0.58370000
    79  H          0.92020000       0.87110000       0.49300000
    80  H          0.07980000       0.12890000       0.50700000
    81  H          0.09120000       0.78230000       0.47670000
    82  H          0.90880000       0.21770000       0.52330000
    83  C          0.97277000       0.79708170       0.12294160
    84  C          0.02723000       0.20291830       0.87705840
    85  H          0.94300000       0.77260000       0.17660000
    86  H          0.05700000       0.22740000       0.82340000
    87  H          0.04790000       0.74490000       0.08800000
    88  H          0.95210000       0.25510000       0.91200000
    89  H          0.86260000       0.82450000       0.10380000
    90  H          0.13740000       0.17550000       0.89620000
    91  C          0.28663000       0.06271170       0.03651140
    92  C          0.71337000       0.93728830       0.96348860
    93  H          0.27950000       0.05570000       0.98140000
    94  H          0.72050000       0.94430000       0.01860000
    95  H          0.41120000       0.05610000       0.03970000
    96  H          0.58880000       0.94390000       0.96030000
    97  H          0.21470000       0.12570000       0.05610000
    98  H          0.78530000       0.87430000       0.94390000
    99  B          0.55663000       0.69311170       0.22343150
   100  B          0.44337000       0.30688830       0.77656850
   101  N          0.46102000       0.65322130       0.16863110
   102  N          0.53898000       0.34677870       0.83136890
   103  N          0.48562000       0.66246130       0.30844110
   104  N          0.51438000       0.33753870       0.69155890
   105  F          0.73975170       0.65358100       0.20142800
   106  F          0.26024830       0.34641900       0.79857200
   107  F          0.52242190       0.79121900       0.21781900
   108  F          0.47757810       0.20878100       0.78218100
   109  O          0.68198000       0.33839140       0.34263130
   110  O          0.31802000       0.66160860       0.65736870
   111  O          0.92578000       0.22118110       0.34738100
   112  O          0.07422000       0.77881890       0.65261900
   113  C          0.84087000       0.31230160       0.33974130
   114  C          0.15913000       0.68769840       0.66025870
   115  C          0.81696000       0.15377190       0.35545160
   116  C          0.18304000       0.84622810       0.64454840
   117  H          0.89120000       0.08930000       0.36050000
   118  H          0.10880000       0.91070000       0.63950000
   119  H          0.76470000       0.15690000       0.30870000
   120  H          0.23530000       0.84310000       0.69130000
   121  H          0.72140000       0.16930000       0.40260000
   122  H          0.27860000       0.83070000       0.59740000
   123  C          0.96327000       0.37658150       0.32748120
   124  C          0.03673000       0.62341850       0.67251880
   125  C          0.14473000       0.34292150       0.32719130
   126  C          0.85527000       0.65707850       0.67280870
   127  H          0.19130000       0.27790000       0.33890000
   128  H          0.80870000       0.72210000       0.66110000
   129  C          0.25793000       0.40344150       0.31002130
   130  C          0.74207000       0.59655850       0.68997870
   131  H          0.38160000       0.37990000       0.30950000
   132  H          0.61840000       0.62010000       0.69050000
   133  C          0.18903000       0.49907150       0.29344120
   134  C          0.81097000       0.50092850       0.70655880
   135  C          0.00733000       0.53352150       0.29611130
   136  C         -0.00733000       0.46647850       0.70388870
   137  H          0.96010000       0.59900000       0.28620000
   138  H          0.03990000       0.40100000       0.71380000
   139  C          0.89437000       0.47288160       0.31319130
   140  C          0.10563000       0.52711840       0.68680870
   141  H          0.77010000       0.49690000       0.31520000
   142  H          0.22990000       0.50310000       0.68480000
   143  C          0.31003000       0.56419150       0.27054130
   144  C          0.68997000       0.43580850       0.72945870
   145  C          0.37383000       0.59993150       0.32851130
   146  C          0.62617000       0.40006850       0.67148870
   147  C          0.34143000       0.58869170       0.41248140
   148  C          0.65857000       0.41130830       0.58751860
   149  C          0.43503000       0.64378190       0.43945150
   150  C          0.56497000       0.35621810       0.56054850
   151  H          0.44000000       0.65030000       0.49310000
   152  H          0.56000000       0.34970000       0.50690000
   153  C          0.52133000       0.68859170       0.37534140
   154  C          0.47867000       0.31140830       0.62465860
   155  C          0.48313000       0.66597170       0.09029140
   156  C          0.51687000       0.33402830       0.90970860
   157  C          0.39083000       0.61070180       0.06009140
   158  C          0.60917000       0.38929820       0.93990860
   159  H          0.38590000       0.60670000       0.00610000
   160  H          0.61410000       0.39330000      -0.00610000
   161  C          0.30793000       0.56287160       0.12191130
   162  C          0.69207000       0.43712840       0.87808870
   163  C          0.35263000       0.59007150       0.19128130
   164  C          0.64737000       0.40992850       0.80871870
   165  C          0.22744000       0.53212000       0.46357150
   166  C          0.77256000       0.46788000       0.53642850
   167  H          0.23290000       0.53850000       0.51890000
   168  H          0.76710000       0.46150000       0.48110000
   169  H          0.27090000       0.46480000       0.44810000
   170  H          0.72910000       0.53520000       0.55190000
   171  H          0.10360000       0.55570000       0.45720000
   172  H          0.89640000       0.44430000       0.54280000
   173  C          0.63574000       0.75564190       0.37707160
   174  C          0.36426000       0.24435810       0.62292840
   175  H          0.67870000       0.77570000       0.32310000
   176  H          0.32130000       0.22430000       0.67690000
   177  H          0.73790000       0.72360000       0.40030000
   178  H          0.26210000       0.27640000       0.59970000
   179  H          0.56560000       0.81160000       0.40890000
   180  H          0.43440000       0.18840000       0.59110000
   181  C          0.59094000       0.73002000       0.04604160
   182  C          0.40906000       0.26998000       0.95395840
   183  H          0.63970000       0.75950000       0.08300000
   184  H          0.36030000       0.24050000       0.91700000
   185  H          0.51460000       0.77980000       0.01940000
   186  H          0.48540000       0.22020000       0.98060000
   187  H          0.68910000       0.69280000       0.00670000
   188  H          0.31090000       0.30720000      -0.00670000
   189  C          0.19063000       0.49939180       0.11263140
   190  C          0.80937000       0.50060820       0.88736860
   191  H          0.18720000       0.49570000       0.05670000
   192  H          0.81280000       0.50430000       0.94330000
   193  H          0.06950000       0.52550000       0.14300000
   194  H          0.93050000       0.47450000       0.85700000
   195  H          0.23850000       0.43550000       0.13210000
   196  H          0.76150000       0.56450000       0.86790000
