data_ASETOI03
_symmetry_space_group_name_H-M    'P1'
_symmetry_Int_Tables_number       1
loop_
_symmetry_equiv_pos_site_id
_symmetry_equiv_pos_as_xyz
1 x,y,z
_cell_length_a                   8.331813
_cell_length_b                   12.085517
_cell_length_c                   18.6102
_cell_angle_alpha                90.0
_cell_angle_beta                 90.0
_cell_angle_gamma                90.0
loop_
_atom_site_label
_atom_site_type_symbol
_atom_site_fract_x
_atom_site_fract_y
_atom_site_fract_z
     1  B          0.60084000       0.83353000       0.62809190
     2  B          0.89916000       0.16647000       0.12809190
     3  B          0.10084000       0.66647000       0.37190810
     4  B          0.39916000       0.33353000       0.87190810
     5  N          0.53843000       0.88992000       0.55820130
     6  N          0.96157000       0.11008000       0.05820130
     7  N          0.03843000       0.61008000       0.44179870
     8  N          0.46157000       0.38992000       0.94179870
     9  N          0.77363000       0.87622000       0.63977120
    10  N          0.72637000       0.12378000       0.13977120
    11  N          0.27363000       0.62378000       0.36022880
    12  N          0.22637000       0.37622000       0.86022880
    13  O          0.26403000       0.22542000       0.30749130
    14  O          0.23597000       0.77458000       0.80749130
    15  O          0.76403000       0.27458000       0.69250870
    16  O          0.73597000       0.72542000       0.19250870
    17  O          0.06653000       0.35232170       0.30996110
    18  O          0.43347000       0.64767830       0.80996110
    19  O          0.56653000       0.14767830       0.69003890
    20  O          0.93347000       0.85232170       0.19003890
    21  F          0.50322000       0.85960160       0.68624900
    22  F         -0.00322000       0.14039840       0.18624900
    23  F          0.00322000       0.64039840       0.31375100
    24  F          0.49678000       0.35960160       0.81375100
    25  F          0.60252000       0.71904140       0.61880900
    26  F          0.89748000       0.28095860       0.11880900
    27  F          0.10252000       0.78095860       0.38119100
    28  F          0.39748000       0.21904140       0.88119100
    29  C          0.13764000       0.25842000       0.33101160
    30  C          0.36236000       0.74158000       0.83101160
    31  C          0.63764000       0.24158000       0.66898840
    32  C          0.86236000       0.75842000       0.16898840
    33  C          0.14735000       0.41003000       0.25217160
    34  C          0.35265000       0.58997000       0.75217160
    35  C          0.64735000       0.08997000       0.74782840
    36  C          0.85265000       0.91003000       0.24782840
    37  H          0.08760000       0.47740000       0.24020000
    38  H          0.41240000       0.52260000       0.74020000
    39  H          0.58760000       0.02260000       0.75980000
    40  H          0.91240000       0.97740000       0.25980000
    41  H          0.15270000       0.36190000       0.20980000
    42  H          0.34730000       0.63810000       0.70980000
    43  H          0.65270000       0.13810000       0.79020000
    44  H          0.84730000       0.86190000       0.29020000
    45  H          0.25620000       0.42970000       0.26740000
    46  H          0.24380000       0.57030000       0.76740000
    47  H          0.75620000       0.07030000       0.73260000
    48  H          0.74380000       0.92970000       0.23260000
    49  C          0.04264000       0.19782000       0.38614160
    50  C          0.45736000       0.80218000       0.88614160
    51  C          0.54264000       0.30218000       0.61385840
    52  C          0.95736000       0.69782000       0.11385840
    53  C          0.93934000       0.24982000       0.43475160
    54  C          0.56066000       0.75018000       0.93475160
    55  C          0.43934000       0.25018000       0.56524840
    56  C          0.06066000       0.74982000       0.06524840
    57  H          0.92690000       0.32790000       0.43350000
    58  H          0.57310000       0.67210000       0.93350000
    59  H          0.42690000       0.17210000       0.56650000
    60  H          0.07310000       0.82790000       0.06650000
    61  C          0.85494000       0.18793000       0.48482170
    62  C          0.64506000       0.81207000       0.98482170
    63  C          0.35494000       0.31207000       0.51517830
    64  C          0.14506000       0.68793000       0.01517830
    65  H          0.78570000       0.22400000       0.51790000
    66  H          0.71430000       0.77600000       0.01790000
    67  H          0.28570000       0.27600000       0.48210000
    68  H          0.21430000       0.72400000       0.98210000
    69  C          0.87094000       0.07282000       0.48702160
    70  C          0.62906000       0.92718000       0.98702160
    71  C          0.37094000       0.42718000       0.51297840
    72  C          0.12906000       0.57282000       0.01297840
    73  C          0.97524000       0.02103000       0.43814160
    74  C          0.52476000       0.97897000       0.93814160
    75  C          0.47524000       0.47897000       0.56185840
    76  C          0.02476000       0.52103000       0.06185840
    77  H         -0.01320000       0.94280000       0.43900000
    78  H          0.51320000       0.05720000       0.93900000
    79  H          0.48680000       0.55720000       0.56100000
    80  H          0.01320000       0.44280000       0.06100000
    81  C          0.06114000       0.08292000       0.38880160
    82  C          0.43886000       0.91708000       0.88880160
    83  C          0.56114000       0.41708000       0.61119840
    84  C          0.93886000       0.58292000       0.11119840
    85  H          0.13300000       0.04730000       0.35660000
    86  H          0.36700000       0.95270000       0.85660000
    87  H          0.63300000       0.45270000       0.64340000
    88  H          0.86700000       0.54730000       0.14340000
    89  C          0.77654000       0.00052000       0.53657150
    90  C          0.72346000      -0.00052000       0.03657150
    91  C          0.27654000       0.49948000       0.46342850
    92  C          0.22346000       0.50052000       0.96342850
    93  C          0.85034000       0.95913000       0.59885150
    94  C          0.64966000       0.04087000       0.09885150
    95  C          0.35034000       0.54087000       0.40114850
    96  C          0.14966000       0.45913000       0.90114850
    97  C          0.00394000       0.97922000       0.63018160
    98  C          0.49606000       0.02078000       0.13018160
    99  C          0.50394000       0.52078000       0.36981840
   100  C         -0.00394000       0.47922000       0.86981840
   101  C          0.01604000       0.90773000       0.68769160
   102  C          0.48396000       0.09227000       0.18769160
   103  C          0.51604000       0.59227000       0.31230840
   104  C         -0.01604000       0.40773000       0.81230840
   105  H          0.10570000       0.90160000       0.71900000
   106  H          0.39430000       0.09840000       0.21900000
   107  H          0.60570000       0.59840000       0.28100000
   108  H          0.89430000       0.40160000       0.78100000
   109  C          0.87494000       0.84582000       0.69234160
   110  C          0.62506000       0.15418000       0.19234160
   111  C          0.37494000       0.65418000       0.30765840
   112  C          0.12506000       0.34582000       0.80765840
   113  C          0.40064000       0.86353000       0.52360170
   114  C          0.09936000       0.13647000       0.02360170
   115  C          0.90064000       0.63647000       0.47639830
   116  C          0.59936000       0.36353000       0.97639830
   117  C          0.39454000       0.92143000       0.45873170
   118  C          0.10546000       0.07857000       0.95873170
   119  C          0.89454000       0.57857000       0.54126830
   120  C          0.60546000       0.42143000       0.04126830
   121  H          0.31000000       0.91760000       0.42450000
   122  H          0.19000000       0.08240000       0.92450000
   123  H          0.81000000       0.58240000       0.57550000
   124  H          0.69000000       0.41760000       0.07550000
   125  C          0.53094000       0.98502000       0.45240160
   126  C          0.96906000       0.01498000       0.95240160
   127  C          0.03094000       0.51498000       0.54759840
   128  C          0.46906000       0.48502000       0.04759840
   129  C          0.62384000       0.96532000       0.51615160
   130  C          0.87616000       0.03468000       0.01615160
   131  C          0.12384000       0.53468000       0.48384840
   132  C          0.37616000       0.46532000       0.98384840
   133  C          0.13104000       0.05953000       0.60673160
   134  C          0.36896000       0.94047000       0.10673160
   135  C          0.63104000       0.44047000       0.39326840
   136  C          0.86896000       0.55953000       0.89326840
   137  H          0.22340000       0.05420000       0.63910000
   138  H          0.27660000       0.94580000       0.13910000
   139  H          0.72340000       0.44580000       0.36090000
   140  H          0.77660000       0.55420000       0.86090000
   141  H          0.08770000       0.13490000       0.60810000
   142  H          0.41230000       0.86510000       0.10810000
   143  H          0.58770000       0.36510000       0.39190000
   144  H          0.91230000       0.63490000       0.89190000
   145  H          0.16480000       0.04180000       0.55760000
   146  H          0.33520000       0.95820000       0.05760000
   147  H          0.66480000       0.45820000       0.44240000
   148  H          0.83520000       0.54180000       0.94240000
   149  C          0.83635000       0.75623000       0.74559170
   150  C          0.66365000       0.24377000       0.24559170
   151  C          0.33635000       0.74377000       0.25440830
   152  C          0.16365000       0.25623000       0.75440830
   153  H          0.72850000       0.72730000       0.73600000
   154  H          0.77150000       0.27270000       0.23600000
   155  H          0.22850000       0.77270000       0.26400000
   156  H          0.27150000       0.22730000       0.76400000
   157  H          0.84030000       0.78660000       0.79440000
   158  H          0.65970000       0.21340000       0.29440000
   159  H          0.34030000       0.71340000       0.20560000
   160  H          0.15970000       0.28660000       0.70560000
   161  H          0.91490000       0.69630000       0.74110000
   162  H          0.58510000       0.30370000       0.24110000
   163  H          0.41490000       0.80370000       0.25890000
   164  H          0.08510000       0.19630000       0.75890000
   165  C          0.27944000       0.78473000       0.55323190
   166  C          0.22056000       0.21527000       0.05323190
   167  C          0.77944000       0.71527000       0.44676810
   168  C          0.72056000       0.28473000       0.94676810
   169  H          0.31640000       0.75680000       0.59980000
   170  H          0.18360000       0.24320000       0.09980000
   171  H          0.81640000       0.74320000       0.40020000
   172  H          0.68360000       0.25680000       0.90020000
   173  H          0.26570000       0.72260000       0.51990000
   174  H          0.23430000       0.27740000       0.01990000
   175  H          0.76570000       0.77740000       0.48010000
   176  H          0.73430000       0.22260000       0.98010000
   177  H          0.17660000       0.82290000       0.55940000
   178  H          0.32340000       0.17710000       0.05940000
   179  H          0.67660000       0.67710000       0.44060000
   180  H          0.82340000       0.32290000       0.94060000
   181  C          0.56745000       0.06013000       0.39002180
   182  C          0.93255000       0.93987000       0.89002180
   183  C          0.06745000       0.43987000       0.60997820
   184  C          0.43255000       0.56013000       0.10997820
   185  H          0.48040000       0.05550000       0.35470000
   186  H          0.01960000       0.94450000       0.85470000
   187  H          0.98040000       0.44450000       0.64530000
   188  H          0.51960000       0.55550000       0.14530000
   189  H          0.66850000       0.03730000       0.36750000
   190  H          0.83150000       0.96270000       0.86750000
   191  H          0.16850000       0.46270000       0.63250000
   192  H          0.33150000       0.53730000       0.13250000
   193  H          0.57710000       0.13650000       0.40720000
   194  H          0.92290000       0.86350000       0.90720000
   195  H          0.07710000       0.36350000       0.59280000
   196  H          0.42290000       0.63650000       0.09280000
