data_ASETOI
_symmetry_space_group_name_H-M    'P1'
_symmetry_Int_Tables_number       1
loop_
_symmetry_equiv_pos_site_id
_symmetry_equiv_pos_as_xyz
1 x,y,z
_cell_length_a                   32.7876
_cell_length_b                   7.9925
_cell_length_c                   7.2524
_cell_angle_alpha                90.0
_cell_angle_beta                 90.194
_cell_angle_gamma                90.0
loop_
_atom_site_label
_atom_site_type_symbol
_atom_site_fract_x
_atom_site_fract_y
_atom_site_fract_z
     1  F          0.30970600       0.38266150       0.12600850
     2  F          0.69029400       0.38266150       0.87399150
     3  F          0.80970600       0.88266150       0.12600850
     4  F          0.19029400       0.88266150       0.87399150
     5  F          0.27285700       0.58752150       0.26432860
     6  F          0.72714300       0.58752150       0.73567140
     7  F          0.77285700       0.08752150       0.26432860
     8  F          0.22714300       0.08752150       0.73567140
     9  O          0.46062500       0.51279190       0.81948000
    10  O          0.53937500       0.51279190       0.18052000
    11  O          0.96062500       0.01279190       0.81948000
    12  O          0.03937500       0.01279190       0.18052000
    13  O          0.50600600       0.31173190       0.75108000
    14  O          0.49399400       0.31173190       0.24892000
    15  O          0.00600600       0.81173190       0.75108000
    16  O          0.99399400       0.81173190       0.24892000
    17  N          0.34616500       0.61592000       0.25878000
    18  N          0.65383500       0.61592000       0.74122000
    19  N          0.84616500       0.11592000       0.25878000
    20  N          0.15383500       0.11592000       0.74122000
    21  N          0.30499500       0.64992000       0.97368000
    22  N          0.69500500       0.64992000       0.02632000
    23  N          0.80499500       0.14992000       0.97368000
    24  N          0.19500500       0.14992000       0.02632000
    25  C          0.35985400       0.56083000       0.42467000
    26  C          0.64014600       0.56083000       0.57533000
    27  C          0.85985400       0.06083000       0.42467000
    28  C          0.14014600       0.06083000       0.57533000
    29  C          0.39354400       0.65663000       0.47597000
    30  C          0.60645600       0.65663000       0.52403000
    31  C          0.89354400       0.15663000       0.47597000
    32  C          0.10645600       0.15663000       0.52403000
    33  H          0.40870000       0.64350000       0.58690000
    34  H          0.59130000       0.64350000       0.41310000
    35  H          0.90870000       0.14350000       0.58690000
    36  H          0.09130000       0.14350000       0.41310000
    37  C          0.40134400       0.77343000       0.34047000
    38  C          0.59865600       0.77343000       0.65953000
    39  C          0.90134400       0.27343000       0.34047000
    40  C          0.09865600       0.27343000       0.65953000
    41  C          0.37114400       0.74753000       0.20137000
    42  C          0.62885600       0.74753000       0.79863000
    43  C          0.87114400       0.24753000       0.20137000
    44  C          0.12885600       0.24753000       0.79863000
    45  C          0.36334400       0.82803000       0.03228000
    46  C          0.63665600       0.82803000       0.96772000
    47  C          0.86334400       0.32803000       0.03228000
    48  C          0.13665600       0.32803000       0.96772000
    49  C          0.33094400       0.78042000       0.91997000
    50  C          0.66905600       0.78042000       0.08003000
    51  C          0.83094400       0.28042000       0.91997000
    52  C          0.16905600       0.28042000       0.08003000
    53  C          0.31668400       0.84083000       0.74477000
    54  C          0.68331600       0.84083000       0.25523000
    55  C          0.81668400       0.34083000       0.74477000
    56  C          0.18331600       0.34083000       0.25523000
    57  C          0.28325400       0.74563000       0.70037000
    58  C          0.71674600       0.74563000       0.29963000
    59  C          0.78325400       0.24563000       0.70037000
    60  C          0.21674600       0.24563000       0.29963000
    61  H          0.26740000       0.75650000       0.59130000
    62  H          0.73260000       0.75650000       0.40870000
    63  H          0.76740000       0.25650000       0.59130000
    64  H          0.23260000       0.25650000       0.40870000
    65  C          0.27635400       0.63023000       0.84137000
    66  C          0.72364600       0.63023000       0.15863000
    67  C          0.77635400       0.13023000       0.84137000
    68  C          0.22364600       0.13023000       0.15863000
    69  C          0.34122300       0.41633000       0.52387000
    70  C          0.65877700       0.41633000       0.47613000
    71  C          0.84122300       0.91633000       0.52387000
    72  C          0.15877700       0.91633000       0.47613000
    73  H          0.31140000       0.42310000       0.51460000
    74  H          0.68860000       0.42310000       0.48540000
    75  H          0.81140000       0.92310000       0.51460000
    76  H          0.18860000       0.92310000       0.48540000
    77  H          0.34940000       0.41940000       0.65400000
    78  H          0.65060000       0.41940000       0.34600000
    79  H          0.84940000       0.91940000       0.65400000
    80  H          0.15060000       0.91940000       0.34600000
    81  H          0.35060000       0.31140000       0.46830000
    82  H          0.64940000       0.31140000       0.53170000
    83  H          0.85060000       0.81140000       0.46830000
    84  H          0.14940000       0.81140000       0.53170000
    85  C          0.43554300       0.89843000       0.34527000
    86  C          0.56445700       0.89843000       0.65473000
    87  C          0.93554300       0.39843000       0.34527000
    88  C          0.06445700       0.39843000       0.65473000
    89  H          0.44860000       0.89610000       0.46700000
    90  H          0.55140000       0.89610000       0.53300000
    91  H          0.94860000       0.39610000       0.46700000
    92  H          0.05140000       0.39610000       0.53300000
    93  H          0.42470000       0.01060000       0.32160000
    94  H          0.57530000       0.01060000       0.67840000
    95  H          0.92470000       0.51060000       0.32160000
    96  H          0.07530000       0.51060000       0.67840000
    97  H          0.45560000       0.87000000       0.25060000
    98  H          0.54440000       0.87000000       0.74940000
    99  H          0.95560000       0.37000000       0.25060000
   100  H          0.04440000       0.37000000       0.74940000
   101  C          0.33213400      -0.01497000       0.63277000
   102  C          0.66786600      -0.01497000       0.36723000
   103  C          0.83213400       0.48503000       0.63277000
   104  C          0.16786600       0.48503000       0.36723000
   105  H          0.32190000       0.97550000       0.50610000
   106  H          0.67810000       0.97550000       0.49390000
   107  H          0.82190000       0.47550000       0.50610000
   108  H          0.17810000       0.47550000       0.49390000
   109  H          0.36200000      -0.01640000       0.63210000
   110  H          0.63800000      -0.01640000       0.36790000
   111  H          0.86200000       0.48360000       0.63210000
   112  H          0.13800000       0.48360000       0.36790000
   113  H          0.32260000       0.09020000       0.68690000
   114  H          0.67740000       0.09020000       0.31310000
   115  H          0.82260000       0.59020000       0.68690000
   116  H          0.17740000       0.59020000       0.31310000
   117  C          0.24330300       0.50293000       0.85387000
   118  C          0.75669700       0.50293000       0.14613000
   119  C          0.74330300       0.00293000       0.85387000
   120  C          0.25669700       0.00293000       0.14613000
   121  H          0.25420000       0.39270000       0.82100000
   122  H          0.74580000       0.39270000       0.17900000
   123  H          0.75420000       0.89270000       0.82100000
   124  H          0.24580000       0.89270000       0.17900000
   125  H          0.22120000       0.53260000       0.76880000
   126  H          0.77880000       0.53260000       0.23120000
   127  H          0.72120000       0.03260000       0.76880000
   128  H          0.27880000       0.03260000       0.23120000
   129  H          0.23280000       0.49970000       0.98020000
   130  H          0.76720000       0.49970000       0.01980000
   131  H          0.73280000      -0.00030000       0.98020000
   132  H          0.26720000      -0.00030000       0.01980000
   133  C          0.39091400       0.96653000       0.97317000
   134  C          0.60908600       0.96653000       0.02683000
   135  C          0.89091400       0.46653000       0.97317000
   136  C          0.10908600       0.46653000       0.02683000
   137  C          0.42857400       0.92943000       0.89328000
   138  C          0.57142600       0.92943000       0.10672000
   139  C          0.92857400       0.42943000       0.89328000
   140  C          0.07142600       0.42943000       0.10672000
   141  H          0.43670000       0.81640000       0.87630000
   142  H          0.56330000       0.81640000       0.12370000
   143  H          0.93670000       0.31640000       0.87630000
   144  H          0.06330000       0.31640000       0.12370000
   145  C          0.45401400       0.05943000       0.83897000
   146  C          0.54598600       0.05943000       0.16103000
   147  C          0.95401400       0.55943000       0.83897000
   148  C          0.04598600       0.55943000       0.16103000
   149  H          0.47960000       0.03470000       0.78450000
   150  H          0.52040000       0.03470000       0.21550000
   151  H          0.97960000       0.53470000       0.78450000
   152  H          0.02040000       0.53470000       0.21550000
   153  C          0.44243400       0.22533000       0.86357000
   154  C          0.55756600       0.22533000       0.13643000
   155  C          0.94243400       0.72533000       0.86357000
   156  C          0.05756600       0.72533000       0.13643000
   157  C          0.40480400       0.26183000       0.94317000
   158  C          0.59519600       0.26183000       0.05683000
   159  C          0.90480400       0.76183000       0.94317000
   160  C          0.09519600       0.76183000       0.05683000
   161  H          0.39670000       0.37490000       0.95980000
   162  H          0.60330000       0.37490000       0.04020000
   163  H          0.89670000       0.87490000       0.95980000
   164  H          0.10330000       0.87490000       0.04020000
   165  C          0.37927400       0.13332000      -0.00193000
   166  C          0.62072600       0.13332000       0.00193000
   167  C          0.87927400       0.63332000      -0.00193000
   168  C          0.12072600       0.63332000       0.00193000
   169  H          0.35370000       0.15850000       0.05310000
   170  H          0.64630000       0.15850000       0.94690000
   171  H          0.85370000       0.65850000       0.05310000
   172  H          0.14630000       0.65850000       0.94690000
   173  C          0.46957400       0.36633000       0.81027000
   174  C          0.53042600       0.36633000       0.18973000
   175  C          0.96957400       0.86633000       0.81027000
   176  C          0.03042600       0.86633000       0.18973000
   177  C          0.53537400       0.43943000       0.70207000
   178  C          0.46462600       0.43943000       0.29793000
   179  C          0.03537400       0.93943000       0.70207000
   180  C          0.96462600       0.93943000       0.29793000
   181  H          0.52430000       0.50850000       0.60210000
   182  H          0.47570000       0.50850000       0.39790000
   183  H          0.02430000       0.00850000       0.60210000
   184  H          0.97570000       0.00850000       0.39790000
   185  H          0.56070000       0.38620000       0.66120000
   186  H          0.43930000       0.38620000       0.33880000
   187  H          0.06070000       0.88620000       0.66120000
   188  H          0.93930000       0.88620000       0.33880000
   189  H          0.54100000       0.51000000       0.80970000
   190  H          0.45900000       0.51000000       0.19030000
   191  H          0.04100000       0.01000000       0.80970000
   192  H          0.95900000       0.01000000       0.19030000
   193  B          0.30726300       0.55363000       0.15837000
   194  B          0.69273700       0.55363000       0.84163000
   195  B          0.80726300       0.05363000       0.15837000
   196  B          0.19273700       0.05363000       0.84163000
