data_ASIHIV03
_symmetry_space_group_name_H-M    'P1'
_symmetry_Int_Tables_number       1
loop_
_symmetry_equiv_pos_site_id
_symmetry_equiv_pos_as_xyz
1 x,y,z
_cell_length_a                   18.06418
_cell_length_b                   18.594311
_cell_length_c                   3.7757919
_cell_angle_alpha                90.0
_cell_angle_beta                 90.0
_cell_angle_gamma                90.0
loop_
_atom_site_label
_atom_site_type_symbol
_atom_site_fract_x
_atom_site_fract_y
_atom_site_fract_z
     1  Cl         0.89934300       0.37072400       0.21739190
     2  Cl         0.60065700       0.62927600       0.71739190
     3  Cl         0.10065700       0.87072400       0.78260810
     4  Cl         0.39934300       0.12927600       0.28260810
     5  Cl         0.10065700       0.62927600       0.78260810
     6  Cl         0.39934300       0.37072400       0.28260810
     7  Cl         0.89934300       0.12927600       0.21739190
     8  Cl         0.60065700       0.87072400       0.71739190
     9  Cl         0.16736300       0.49625400       0.21263190
    10  Cl         0.33263700       0.50374600       0.71263190
    11  Cl         0.83263700      -0.00374600       0.78736810
    12  Cl         0.66736300       0.00374600       0.28736810
    13  Cl         0.83263700       0.50374600       0.78736810
    14  Cl         0.66736300       0.49625400       0.28736810
    15  Cl         0.16736300       0.00374600       0.21263190
    16  Cl         0.33263700      -0.00374600       0.71263190
    17  O          0.05447110       0.39080120       0.39887000
    18  O          0.44552890       0.60919880       0.89887000
    19  O          0.94552890       0.89080120       0.60113000
    20  O          0.55447110       0.10919880       0.10113000
    21  O          0.94552890       0.60919880       0.60113000
    22  O          0.55447110       0.39080120       0.10113000
    23  O          0.05447110       0.10919880       0.39887000
    24  O          0.44552890       0.89080120       0.89887000
    25  C          0.95286150       0.44380160       0.09889000
    26  C          0.54713850       0.55619840       0.59889000
    27  C          0.04713850       0.94380160       0.90111000
    28  C          0.45286150       0.05619840       0.40111000
    29  C          0.04713850       0.55619840       0.90111000
    30  C          0.45286150       0.44380160       0.40111000
    31  C          0.95286150       0.05619840       0.09889000
    32  C          0.54713850       0.94380160       0.59889000
    33  C          0.02999150       0.44062170       0.21499000
    34  C          0.47000850       0.55937830       0.71499000
    35  C          0.97000850       0.94062170       0.78501000
    36  C          0.52999150       0.05937830       0.28501000
    37  C          0.97000850       0.55937830       0.78501000
    38  C          0.52999150       0.44062170       0.28501000
    39  C          0.02999150       0.05937830       0.21499000
    40  C          0.47000850       0.94062170       0.71499000
    41  C          0.07482160       0.50081160       0.09639000
    42  C          0.42517840       0.49918840       0.59639000
    43  C          0.92517840       0.00081160       0.90361000
    44  C          0.57482160      -0.00081160       0.40361000
    45  C          0.92517840       0.49918840       0.90361000
    46  C          0.57482160       0.50081160       0.40361000
    47  C          0.07482160      -0.00081160       0.09639000
    48  C          0.42517840       0.00081160       0.59639000
    49  N          0.87072180       0.75000000       0.15429000
    50  N          0.62927820       0.25000000       0.65429000
    51  N          0.12927820       0.25000000       0.84571000
    52  N          0.37072180       0.75000000       0.34571000
    53  C          0.83444150       0.68684180       0.16708000
    54  C          0.66555850       0.31315820       0.66708000
    55  C          0.16555850       0.18684180       0.83292000
    56  C          0.33444150       0.81315820       0.33292000
    57  C          0.16555850       0.31315820       0.83292000
    58  C          0.33444150       0.68684180       0.33292000
    59  C          0.83444150       0.81315820       0.16708000
    60  C          0.66555850       0.18684180       0.66708000
    61  H          0.86430000       0.64220000       0.17112000
    62  H          0.63570000       0.35780000       0.67112000
    63  H          0.13570000       0.14220000       0.82888000
    64  H          0.36430000       0.85780000       0.32888000
    65  H          0.13570000       0.35780000       0.82888000
    66  H          0.36430000       0.64220000       0.32888000
    67  H          0.86430000       0.85780000       0.17112000
    68  H          0.63570000       0.14220000       0.67112000
    69  C          0.75784160       0.68552180       0.19499000
    70  C          0.74215840       0.31447820       0.69499000
    71  C          0.24215840       0.18552180       0.80501000
    72  C          0.25784160       0.81447820       0.30501000
    73  C          0.24215840       0.31447820       0.80501000
    74  C          0.25784160       0.68552180       0.30501000
    75  C          0.75784160       0.81447820       0.19499000
    76  C          0.74215840       0.18552180       0.69499000
    77  H          0.73620000       0.63920000       0.20310000
    78  H          0.76380000       0.36080000       0.70310000
    79  H          0.26380000       0.13920000       0.79690000
    80  H          0.23620000       0.86080000       0.29690000
    81  H          0.26380000       0.36080000       0.79690000
    82  H          0.23620000       0.63920000       0.29690000
    83  H          0.73620000       0.86080000       0.20310000
    84  H          0.76380000       0.13920000       0.70310000
    85  C          0.72002000       0.75000000       0.20681200
    86  C          0.77998000       0.25000000       0.70681200
    87  C          0.27998000       0.25000000       0.79318800
    88  C          0.22002000       0.75000000       0.29318800
    89  H          0.66640000       0.75000000       0.23415000
    90  H          0.83360000       0.25000000       0.73415000
    91  H          0.33360000       0.25000000       0.76585000
    92  H          0.16640000       0.75000000       0.26585000
    93  C          0.95282000       0.75000000       0.12011300
    94  C          0.54718000       0.25000000       0.62011300
    95  C          0.04718000       0.25000000       0.87988700
    96  C          0.45282000       0.75000000       0.37988700
    97  H          0.97230000       0.70630000       0.22513000
    98  H          0.52770000       0.29370000       0.72513000
    99  H          0.02770000       0.20630000       0.77487000
   100  H          0.47230000       0.79370000       0.27487000
   101  H          0.02770000       0.29370000       0.77487000
   102  H          0.47230000       0.70630000       0.27487000
   103  H          0.97230000       0.79370000       0.22513000
   104  H          0.52770000       0.20630000       0.72513000
   105  H          0.96240000       0.75000000       0.85800000
   106  H          0.53760000       0.25000000       0.35800000
   107  H          0.03760000       0.25000000       0.14200000
   108  H          0.46240000       0.75000000       0.64200000
   109  H          0.97230000       0.79430000       0.22513000
   110  H          0.52770000       0.20570000       0.72513000
   111  H          0.02770000       0.29430000       0.77487000
   112  H          0.47230000       0.70570000       0.27487000
   113  H          0.02770000       0.20570000       0.77487000
   114  H          0.47230000       0.79430000       0.27487000
   115  H          0.97230000       0.70570000       0.22513000
   116  H          0.52770000       0.29430000       0.72513000
