data_ASIHIV
_symmetry_space_group_name_H-M    'P1'
_symmetry_Int_Tables_number       1
loop_
_symmetry_equiv_pos_site_id
_symmetry_equiv_pos_as_xyz
1 x,y,z
_cell_length_a                   7.28826
_cell_length_b                   9.22506
_cell_length_c                   10.38237
_cell_angle_alpha                73.4566
_cell_angle_beta                 72.9147
_cell_angle_gamma                75.6756
loop_
_atom_site_label
_atom_site_type_symbol
_atom_site_fract_x
_atom_site_fract_y
_atom_site_fract_z
     1  Cl         0.17455130       0.09957900       0.86749800
     2  Cl         0.82544870       0.90042100       0.13250200
     3  Cl         0.32897120       0.32418900       0.58195800
     4  Cl         0.67102880       0.67581100       0.41804200
     5  Cl         0.28224130       0.92451900       0.30919800
     6  Cl         0.71775870       0.07548100       0.69080200
     7  Cl         0.13507130       0.69734900       0.59407800
     8  Cl         0.86492870       0.30265100       0.40592200
     9  O          0.12094000       0.81023000       0.83382000
    10  O          0.87906000       0.18977000       0.16618000
    11  O          0.40154000       0.18973000       0.34372000
    12  O          0.59846000       0.81027000       0.65628000
    13  C          0.18245000       0.89794000       0.72143000
    14  C          0.81755000       0.10206000       0.27857000
    15  C          0.22425000       0.04794000       0.71153000
    16  C          0.77575000       0.95206000       0.28847000
    17  C          0.29455000       0.14294000       0.58923000
    18  C          0.70545000       0.85706000       0.41077000
    19  C          0.27315000       0.96104000       0.46473000
    20  C          0.72685000       0.03896000       0.53527000
    21  C          0.33215000       0.10414000       0.45603000
    22  C          0.66785000       0.89586000       0.54397000
    23  C          0.20555000       0.86594000       0.58763000
    24  C          0.79445000       0.13406000       0.41237000
    25  N          0.37025000       0.60133000       0.16283000
    26  N          0.62975000       0.39867000       0.83717000
    27  C          0.54125000       0.50834000       0.17573000
    28  C          0.45875000       0.49166000       0.82427000
    29  H          0.54370000       0.41890000       0.24540000
    30  H          0.45630000       0.58110000       0.75460000
    31  C          0.71334000       0.54575000       0.08524000
    32  C          0.28666000       0.45425000       0.91476000
    33  H          0.83160000       0.48140000       0.09400000
    34  H          0.16840000       0.51860000       0.90600000
    35  C          0.70984000       0.67844000       0.98194000
    36  C          0.29016000       0.32156000       0.01806000
    37  H          0.82520000       0.70450000       0.92110000
    38  H          0.17480000       0.29550000       0.07890000
    39  C          0.53194000       0.77254000       0.96983000
    40  C          0.46806000       0.22746000       0.03017000
    41  H          0.52680000       0.86250000       0.90080000
    42  H          0.47320000       0.13750000       0.09920000
    43  C          0.36274000       0.73074000       0.06143000
    44  C          0.63726000       0.26926000       0.93857000
    45  H          0.24290000       0.79230000       0.05320000
    46  H          0.75710000       0.20770000       0.94680000
    47  C          0.18714000       0.56114000       0.25974000
    48  C          0.81286000       0.43886000       0.74026000
    49  H          0.21620000       0.46880000       0.32740000
    50  H          0.78380000       0.53120000       0.67260000
    51  H          0.10530000       0.54500000       0.20950000
    52  H          0.89470000       0.45500000       0.79050000
    53  H          0.12100000       0.64340000       0.30520000
    54  H          0.87900000       0.35660000       0.69480000
