data_ASIHIV01
_symmetry_space_group_name_H-M    'P1'
_symmetry_Int_Tables_number       1
loop_
_symmetry_equiv_pos_site_id
_symmetry_equiv_pos_as_xyz
1 x,y,z
_cell_length_a                   18.18804
_cell_length_b                   18.74244
_cell_length_c                   3.841101
_cell_angle_alpha                90.0
_cell_angle_beta                 90.0
_cell_angle_gamma                90.0
loop_
_atom_site_label
_atom_site_type_symbol
_atom_site_fract_x
_atom_site_fract_y
_atom_site_fract_z
     1  Cl         0.90097200       0.37157200       0.21674120
     2  Cl         0.59902800       0.62842800       0.71674120
     3  Cl         0.40097200       0.12842800       0.28325880
     4  Cl         0.09902800       0.87157200       0.78325880
     5  Cl         0.09902800       0.62842800       0.78325880
     6  Cl         0.40097200       0.37157200       0.28325880
     7  Cl         0.59902800       0.87157200       0.71674120
     8  Cl         0.90097200       0.12842800       0.21674120
     9  Cl         0.16647200       0.49673200       0.20000120
    10  Cl         0.33352800       0.50326800       0.70000120
    11  Cl         0.66647200       0.00326800       0.29999880
    12  Cl         0.83352800      -0.00326800       0.79999880
    13  Cl         0.83352800       0.50326800       0.79999880
    14  Cl         0.66647200       0.49673200       0.29999880
    15  Cl         0.33352800      -0.00326800       0.70000120
    16  Cl         0.16647200       0.00326800       0.20000120
    17  O          0.05550700       0.39141600       0.38284000
    18  O          0.44449300       0.60858400       0.88284000
    19  O          0.55550700       0.10858400       0.11716000
    20  O          0.94449300       0.89141600       0.61716000
    21  O          0.94449300       0.60858400       0.61716000
    22  O          0.55550700       0.39141600       0.11716000
    23  O          0.44449300       0.89141600       0.88284000
    24  O          0.05550700       0.10858400       0.38284000
    25  C          0.95374800       0.44404800       0.09704000
    26  C          0.54625200       0.55595200       0.59704000
    27  C          0.45374800       0.05595200       0.40296000
    28  C          0.04625200       0.94404800       0.90296000
    29  C          0.04625200       0.55595200       0.90296000
    30  C          0.45374800       0.44404800       0.40296000
    31  C          0.54625200       0.94404800       0.59704000
    32  C          0.95374800       0.05595200       0.09704000
    33  C          0.02999900       0.44112800       0.20514000
    34  C          0.47000100       0.55887200       0.70514000
    35  C          0.52999900       0.05887200       0.29486000
    36  C          0.97000100       0.94112800       0.79486000
    37  C          0.97000100       0.55887200       0.79486000
    38  C          0.52999900       0.44112800       0.29486000
    39  C          0.47000100       0.94112800       0.70514000
    40  C          0.02999900       0.05887200       0.20514000
    41  C          0.07474900       0.50089800       0.09005000
    42  C          0.42525100       0.49910200       0.59005000
    43  C          0.57474900      -0.00089800       0.40995000
    44  C          0.92525100       0.00089800       0.90995000
    45  C          0.92525100       0.49910200       0.90995000
    46  C          0.57474900       0.50089800       0.40995000
    47  C          0.42525100       0.00089800       0.59005000
    48  C          0.07474900      -0.00089800       0.09005000
    49  N          0.87047110       0.75000000       0.17185000
    50  N          0.62952890       0.25000000       0.67185000
    51  N          0.37047110       0.75000000       0.32815000
    52  N          0.12952890       0.25000000       0.82815000
    53  C          0.83371110       0.68776900       0.18215000
    54  C          0.66628890       0.31223100       0.68215000
    55  C          0.33371110       0.81223100       0.31785000
    56  C          0.16628890       0.18776900       0.81785000
    57  C          0.16628890       0.31223100       0.81785000
    58  C          0.33371110       0.68776900       0.31785000
    59  C          0.66628890       0.18776900       0.68215000
    60  C          0.83371110       0.81223100       0.18215000
    61  H          0.86561500       0.64711400       0.18260000
    62  H          0.63438500       0.35288600       0.68260000
    63  H          0.36561500       0.85288600       0.31740000
    64  H          0.13438500       0.14711400       0.81740000
    65  H          0.13438500       0.35288600       0.81740000
    66  H          0.36561500       0.64711400       0.31740000
    67  H          0.63438500       0.14711400       0.68260000
    68  H          0.86561500       0.85288600       0.18260000
    69  C          0.75861120       0.68679110       0.20026000
    70  C          0.74138880       0.31320890       0.70026000
    71  C          0.25861120       0.81320890       0.29974000
    72  C          0.24138880       0.18679110       0.79974000
    73  C          0.24138880       0.31320890       0.79974000
    74  C          0.25861120       0.68679110       0.29974000
    75  C          0.74138880       0.18679110       0.70026000
    76  C          0.75861120       0.81320890       0.20026000
    77  H          0.73231500       0.64081500       0.21060000
    78  H          0.76768500       0.35918500       0.71060000
    79  H          0.23231500       0.85918500       0.28940000
    80  H          0.26768500       0.14081500       0.78940000
    81  H          0.26768500       0.35918500       0.78940000
    82  H          0.23231500       0.64081500       0.28940000
    83  H          0.76768500       0.14081500       0.71060000
    84  H          0.73231500       0.85918500       0.21060000
    85  C          0.72037160       0.75000000       0.20938000
    86  C          0.77962840       0.25000000       0.70938000
    87  C          0.22037160       0.75000000       0.29062000
    88  C          0.27962840       0.25000000       0.79062000
    89  H          0.66720000       0.75000000       0.23180000
    90  H          0.83280000       0.25000000       0.73180000
    91  H          0.16720000       0.75000000       0.26820000
    92  H          0.33280000       0.25000000       0.76820000
    93  C          0.95172140       0.75000000       0.14948000
    94  C          0.54827860       0.25000000       0.64948000
    95  C          0.45172140       0.75000000       0.35052000
    96  C          0.04827860       0.25000000       0.85052000
    97  H          0.97081700       0.71051600       0.26070000
    98  H          0.52918300       0.28948400       0.76070000
    99  H          0.47081700       0.78948400       0.23930000
   100  H          0.02918300       0.21051600       0.73930000
   101  H          0.02918300       0.28948400       0.73930000
   102  H          0.47081700       0.71051600       0.23930000
   103  H          0.52918300       0.21051600       0.76070000
   104  H          0.97081700       0.78948400       0.26070000
   105  H          0.96330000       0.75000000       0.89384000
   106  H          0.53670000       0.25000000       0.39384000
   107  H          0.46330000       0.75000000       0.60616000
   108  H          0.03670000       0.25000000       0.10616000
