data_ATTDAZ01
_symmetry_space_group_name_H-M    'P1'
_symmetry_Int_Tables_number       1
loop_
_symmetry_equiv_pos_site_id
_symmetry_equiv_pos_as_xyz
1 x,y,z
_cell_length_a                   6.1681
_cell_length_b                   10.0351
_cell_length_c                   9.0202
_cell_angle_alpha                90.0
_cell_angle_beta                 116.252
_cell_angle_gamma                90.0
loop_
_atom_site_label
_atom_site_type_symbol
_atom_site_fract_x
_atom_site_fract_y
_atom_site_fract_z
     1  S          0.68222000       0.12021000       0.28121000
     2  S          0.31778000       0.62021000       0.21879000
     3  S          0.31778000       0.87979000       0.71879000
     4  S          0.68222000       0.37979000       0.78121000
     5  S          0.09962000       0.97039000       0.27341000
     6  S          0.90038000       0.47039000       0.22659000
     7  S          0.90038000       0.02961000       0.72659000
     8  S          0.09962000       0.52961000       0.77341000
     9  N          0.53706000       0.18224000       0.97546000
    10  N          0.46294000       0.68224000       0.52454000
    11  N          0.46294000       0.81776000       0.02454000
    12  N          0.53706000       0.31776000       0.47546000
    13  N          0.74107000       0.10583000       0.02574000
    14  N          0.25893000       0.60583000       0.47426000
    15  N          0.25893000       0.89417000       0.97426000
    16  N          0.74107000       0.39417000       0.52574000
    17  N          0.29537000       0.27074000       0.08984000
    18  N          0.70463000       0.77074000       0.41016000
    19  N          0.70463000       0.72926000       0.91016000
    20  N          0.29537000       0.22926000       0.58984000
    21  C          0.48407000       0.20114000       0.09864000
    22  C          0.51593000       0.70114000       0.40136000
    23  C          0.51593000       0.79886000       0.90136000
    24  C          0.48407000       0.29886000       0.59864000
    25  C          0.84708000       0.06304000       0.18095000
    26  C          0.15292000       0.56304000       0.31905000
    27  C          0.15292000       0.93696000       0.81905000
    28  C          0.84708000       0.43696000       0.68095000
    29  H          0.80200000       0.08600000       0.94200000
    30  H          0.19800000       0.58600000       0.55800000
    31  H          0.19800000       0.91400000       0.05800000
    32  H          0.80200000       0.41400000       0.44200000
    33  H          0.21800000       0.31800000       0.02000000
    34  H          0.78200000       0.81800000       0.48000000
    35  H          0.78200000       0.68200000       0.98000000
    36  H          0.21800000       0.18200000       0.52000000
    37  H          0.25800000       0.31400000       0.17000000
    38  H          0.74200000       0.81400000       0.33000000
    39  H          0.74200000       0.68600000       0.83000000
    40  H          0.25800000       0.18600000       0.67000000
