data_ATTDAZ03
_symmetry_space_group_name_H-M    'P1'
_symmetry_Int_Tables_number       1
loop_
_symmetry_equiv_pos_site_id
_symmetry_equiv_pos_as_xyz
1 x,y,z
_cell_length_a                   6.1962
_cell_length_b                   10.0454
_cell_length_c                   8.3983
_cell_angle_alpha                90.0
_cell_angle_beta                 105.17611
_cell_angle_gamma                90.0
loop_
_atom_site_label
_atom_site_type_symbol
_atom_site_fract_x
_atom_site_fract_y
_atom_site_fract_z
     1  S          0.67410140       0.02964900       0.77302100
     2  S          0.82589860       0.52964900       0.72697900
     3  S          0.32589860       0.97035100       0.22697900
     4  S          0.17410140       0.47035100       0.27302100
     5  H          0.53130000       0.08500000       0.67010000
     6  H          0.96870000       0.58500000       0.82990000
     7  H          0.46870000       0.91500000       0.32990000
     8  H          0.03130000       0.41500000       0.17010000
     9  S          0.09826120       0.87971800       0.78099800
    10  S          0.40173880       0.37971800       0.71900200
    11  S          0.90173880       0.12028200       0.21900200
    12  S          0.59826120       0.62028200       0.28099800
    13  N          0.29325000       0.72853000       0.58994000
    14  N          0.20675000       0.22853000       0.91006000
    15  N          0.70675000       0.27147000       0.41006000
    16  N          0.79325000       0.77147000       0.08994000
    17  H          0.29730000       0.69110000       0.49600000
    18  H          0.20270000       0.19110000       0.00400000
    19  H          0.70270000       0.30890000       0.50400000
    20  H          0.79730000       0.80890000      -0.00400000
    21  H          0.40700000       0.71960000       0.67740000
    22  H          0.09300000       0.21960000       0.82260000
    23  H          0.59300000       0.28040000       0.32260000
    24  H          0.90700000       0.78040000       0.17740000
    25  N          0.93774000       0.81683000       0.47443000
    26  N          0.56226000       0.31683000       0.02557000
    27  N          0.06226000       0.18317000       0.52557000
    28  N          0.43774000       0.68317000       0.97443000
    29  N          0.78234000       0.89432000       0.52633000
    30  N          0.71766000       0.39432000       0.97367000
    31  N          0.21766000       0.10568000       0.47367000
    32  N          0.28234000       0.60568000       0.02633000
    33  C          0.83335000       0.93723000       0.68044000
    34  C          0.66665000       0.43723000       0.81956000
    35  C          0.16665000       0.06277000       0.31956000
    36  C          0.33335000       0.56277000       0.18044000
    37  C          0.11295000       0.79943000       0.59963000
    38  C          0.38705000       0.29943000       0.90037000
    39  C          0.88705000       0.20057000       0.40037000
    40  C          0.61295000       0.70057000       0.09963000
