data_ATTDAZ04
_symmetry_space_group_name_H-M    'P1'
_symmetry_Int_Tables_number       1
loop_
_symmetry_equiv_pos_site_id
_symmetry_equiv_pos_as_xyz
1 x,y,z
_cell_length_a                   5.4853
_cell_length_b                   9.4654
_cell_length_c                   10.6005
_cell_angle_alpha                65.87514
_cell_angle_beta                 81.09614
_cell_angle_gamma                85.63113
loop_
_atom_site_label
_atom_site_type_symbol
_atom_site_fract_x
_atom_site_fract_y
_atom_site_fract_z
     1  S          0.15963000       0.93467170       0.29972170
     2  S          0.84037000       0.06532830       0.70027830
     3  S          0.74517000       0.15214180       0.32781180
     4  S          0.25483000       0.84785820       0.67218820
     5  H          0.80210000       0.20730000       0.40270000
     6  H          0.19790000       0.79270000       0.59730000
     7  N          0.76491000       0.84176000       0.46126000
     8  N          0.23509000       0.15824000       0.53874000
     9  N          0.89731000       0.70476000       0.47806000
    10  N          0.10269000       0.29524000       0.52194000
    11  C          0.86869000       0.97246000       0.37116000
    12  C          0.13131000       0.02754000       0.62884000
    13  N          0.29118000       0.63046000       0.39636000
    14  N          0.70882000       0.36954000       0.60364000
    15  H          0.26630000       0.53150000       0.44880000
    16  H          0.73370000       0.46850000       0.55120000
    17  H          0.43170000       0.66040000       0.34130000
    18  H          0.56830000       0.33960000       0.65870000
    19  C          0.10951000       0.73848000       0.40037000
    20  C          0.89049000       0.26152000       0.59963000
    21  S          0.67927000       0.86733170       0.11592180
    22  S          0.32073000       0.13266830       0.88407820
    23  H          0.47910000       0.81340000       0.13480000
    24  H          0.52090000       0.18660000       0.86520000
    25  S          0.85927000       0.53729170       0.19868180
    26  S          0.14073000       0.46270830       0.80131820
    27  N          0.12239000       0.75996000       0.04166000
    28  N          0.87761000       0.24004000       0.95834000
    29  N          0.27398000       0.63496000       0.04656000
    30  N          0.72602000       0.36504000       0.95344000
    31  C          0.89729000       0.73517000       0.11076000
    32  C          0.10271000       0.26483000       0.88924000
    33  N          0.25948000       0.36435000       0.15736000
    34  N          0.74052000       0.63565000       0.84264000
    35  H          0.41060000       0.35200000       0.12070000
    36  H          0.58940000       0.64800000       0.87930000
    37  H          0.17140000       0.28290000       0.21370000
    38  H          0.82860000       0.71710000       0.78630000
    39  C          0.16141000       0.50977000       0.12686000
    40  C          0.83859000       0.49023000       0.87314000
