data_AVIMEY03
_symmetry_space_group_name_H-M    'P1'
_symmetry_Int_Tables_number       1
loop_
_symmetry_equiv_pos_site_id
_symmetry_equiv_pos_as_xyz
1 x,y,z
_cell_length_a                   8.419811
_cell_length_b                   5.84287
_cell_length_c                   8.60499
_cell_angle_alpha                90.0
_cell_angle_beta                 91.92011
_cell_angle_gamma                90.0
loop_
_atom_site_label
_atom_site_type_symbol
_atom_site_fract_x
_atom_site_fract_y
_atom_site_fract_z
     1  C          0.43873000       0.77235000       0.27933000
     2  C          0.56127000       0.27235000       0.72067000
     3  H          0.38359100       0.90946500       0.28767500
     4  H          0.61640900       0.40946500       0.71232500
     5  C          0.57913000       0.74267000       0.36454000
     6  C          0.42087000       0.24267000       0.63546000
     7  H          0.61699100       0.85788700       0.43044300
     8  H          0.38300900       0.35788700       0.56955700
     9  C          0.66194000       0.54326000       0.35154000
    10  C          0.33806000       0.04326000       0.64846000
    11  H          0.75645200       0.52222700       0.40874600
    12  H          0.24354800       0.02222700       0.59125400
    13  C          0.60584000       0.37406000       0.25413000
    14  C          0.39416000       0.87406000       0.74587000
    15  H          0.66300200       0.23872200       0.24489000
    16  H          0.33699800       0.73872200       0.75511000
    17  C          0.46423000       0.40305000       0.16913000
    18  C          0.53577000       0.90305000       0.83087000
    19  H          0.42714000       0.28716600       0.10322300
    20  H          0.57286000       0.78716600       0.89677700
    21  C          0.37783000       0.60344000       0.18172000
    22  C          0.62217000       0.10344000       0.81828000
    23  C          0.22183000       0.63414000       0.09312000
    24  C          0.77817000       0.13414000       0.90688000
    25  H          0.21563300       0.52253500       0.00968700
    26  H          0.78436700       0.02253500      -0.00968700
    27  H          0.22032800       0.78495700       0.04601900
    28  H          0.77967200       0.28495700       0.95398100
    29  C          0.07502000       0.60894000       0.19092000
    30  C          0.92498000       0.10894000       0.80908000
    31  H          0.98063200       0.61551000       0.12116500
    32  H          0.01936800       0.11551000       0.87883500
    33  O          0.06822000       0.79403000       0.29662000
    34  O          0.93178000       0.29403000       0.70338000
    35  H          0.04011200       0.74820000       0.37940000
    36  H          0.95988800       0.24820000       0.62060000
    37  C          0.07252000       0.38504000       0.27792000
    38  C          0.92748000       0.88504000       0.72208000
    39  O          0.06722000       0.37253000       0.41662170
    40  O          0.93278000       0.87253000       0.58337830
    41  O          0.07342000       0.20873000       0.18352000
    42  O          0.92658000       0.70873000       0.81648000
    43  H          0.07162000       0.08750000       0.23620000
    44  H          0.92838000       0.58750000       0.76380000
