data_AVIMEY01
_symmetry_space_group_name_H-M    'P1'
_symmetry_Int_Tables_number       1
loop_
_symmetry_equiv_pos_site_id
_symmetry_equiv_pos_as_xyz
1 x,y,z
_cell_length_a                   12.73473
_cell_length_b                   5.8598313
_cell_length_c                   21.87146
_cell_angle_alpha                90.0
_cell_angle_beta                 96.8592
_cell_angle_gamma                90.0
loop_
_atom_site_label
_atom_site_type_symbol
_atom_site_fract_x
_atom_site_fract_y
_atom_site_fract_z
     1  O          0.48871120       0.04792000       0.42480700
     2  O          0.51128880       0.54792000       0.07519300
     3  O          0.51128880       0.95208000       0.57519300
     4  O          0.48871120       0.45208000       0.92480700
     5  H          0.55320000       0.08450000       0.43641200
     6  H          0.44680000       0.58450000       0.06358800
     7  H          0.44680000       0.91550000       0.56358800
     8  H          0.55320000       0.41550000       0.93641200
     9  H          0.44020000       0.76850000       0.42331300
    10  H          0.55980000       0.26850000       0.07668700
    11  H          0.55980000       0.23150000       0.57668700
    12  H          0.44020000       0.73150000       0.92331300
    13  O          0.56634110       0.47422000       0.42385700
    14  O          0.43365890       0.97422000       0.07614300
    15  O          0.43365890       0.52578000       0.57614300
    16  O          0.56634110       0.02578000       0.92385700
    17  O          0.40717120       0.63172000       0.42603700
    18  O          0.59282880       0.13172000       0.07396300
    19  O          0.59282880       0.36828000       0.57396300
    20  O          0.40717120       0.86828000       0.92603700
    21  C          0.41704150       0.23063000       0.43180900
    22  C          0.58295850       0.73063000       0.06819100
    23  C          0.58295850       0.76937000       0.56819100
    24  C          0.41704150       0.26937000       0.93180900
    25  H          0.39580000       0.22170000       0.47430000
    26  H          0.60420000       0.72170000       0.02570000
    27  H          0.60420000       0.77830000       0.52570000
    28  H          0.39580000       0.27830000       0.97430000
    29  C          0.37980160       0.04444000       0.28839100
    30  C          0.62019840       0.54444000       0.21160900
    31  C          0.62019840       0.95556000       0.71160900
    32  C          0.37980160       0.45556000       0.78839100
    33  H          0.39780000       0.90520000       0.30930000
    34  H          0.60220000       0.40520000       0.19070000
    35  H          0.60220000       0.09480000       0.69070000
    36  H          0.39780000       0.59480000       0.80930000
    37  C          0.33571150       0.22053000       0.31928900
    38  C          0.66428850       0.72053000       0.18071100
    39  C          0.66428850       0.77947000       0.68071100
    40  C          0.33571150       0.27947000       0.81928900
    41  C          0.32879180       0.44684000       0.22648100
    42  C          0.67120820       0.94684000       0.27351900
    43  C          0.67120820       0.55316000       0.77351900
    44  C          0.32879180       0.05316000       0.72648100
    45  H          0.31160000       0.58620000       0.20550000
    46  H          0.68840000       0.08620000       0.29450000
    47  H          0.68840000       0.41380000       0.79450000
    48  H          0.31160000       0.91380000       0.70550000
    49  C          0.31012160       0.42234000       0.28763100
    50  C          0.68987840       0.92234000       0.21236900
    51  C          0.68987840       0.57766000       0.71236900
    52  C          0.31012160       0.07766000       0.78763100
    53  H          0.27960000       0.54480000       0.30790000
    54  H          0.72040000       0.04480000       0.19210000
    55  H          0.72040000       0.45520000       0.69210000
    56  H          0.27960000       0.95520000       0.80790000
    57  C          0.39792170       0.06864000       0.22744100
    58  C          0.60207830       0.56864000       0.27255900
    59  C          0.60207830       0.93136000       0.77255900
    60  C          0.39792170       0.43136000       0.72744100
    61  H          0.42820000       0.94630000       0.20710000
    62  H          0.57180000       0.44630000       0.29290000
    63  H          0.57180000       0.05370000       0.79290000
    64  H          0.42820000       0.55370000       0.70710000
    65  C          0.47242160       0.45673000       0.42566800
    66  C          0.52757840       0.95673000       0.07433200
    67  C          0.52757840       0.54327000       0.57433200
    68  C          0.47242160       0.04327000       0.92566800
    69  C          0.31792150       0.19763000       0.38602900
    70  C          0.68207850       0.69763000       0.11397100
    71  C          0.68207850       0.80237000       0.61397100
    72  C          0.31792150       0.30237000       0.88602900
    73  H          0.28850000       0.04420000       0.39240000
    74  H          0.71150000       0.54420000       0.10760000
    75  H          0.71150000       0.95580000       0.60760000
    76  H          0.28850000       0.45580000       0.89240000
    77  H          0.26440000       0.31130000       0.39500000
    78  H          0.73560000       0.81130000       0.10500000
    79  H          0.73560000       0.68870000       0.60500000
    80  H          0.26440000       0.18870000       0.89500000
    81  C          0.37209170       0.26984000       0.19618100
    82  C          0.62790830       0.76984000       0.30381900
    83  C          0.62790830       0.73016000       0.80381900
    84  C          0.37209170       0.23016000       0.69618100
    85  H          0.38400000       0.28610000       0.15430000
    86  H          0.61600000       0.78610000       0.34570000
    87  H          0.61600000       0.71390000       0.84570000
    88  H          0.38400000       0.21390000       0.65430000
    89  H          0.83520000       0.74050000       0.46671200
    90  H          0.16480000       0.24050000       0.03328800
    91  H          0.16480000       0.25950000       0.53328800
    92  H          0.83520000       0.75950000       0.96671200
    93  O          0.70572110       0.02812000       0.46264700
    94  O          0.29427890       0.52812000       0.03735300
    95  O          0.29427890       0.97188000       0.53735300
    96  O          0.70572110       0.47188000       0.96264700
    97  H          0.72020000       0.43350000       0.45241200
    98  H          0.27980000       0.93350000       0.04758800
    99  H          0.27980000       0.56650000       0.54758800
   100  H          0.72020000       0.06650000       0.95241200
   101  O          0.78798120       0.45892000       0.46449700
   102  O          0.21201880       0.95892000       0.03550300
   103  O          0.21201880       0.54108000       0.53550300
   104  O          0.78798120       0.04108000       0.96449700
   105  O          0.86764120       0.87787000       0.46601800
   106  O          0.13235880       0.37787000       0.03398200
   107  O          0.13235880       0.12213000       0.53398200
   108  O          0.86764120       0.62213000       0.96601800
   109  C          0.85290160       0.27363000       0.44998100
   110  C          0.14709840       0.77363000       0.05001900
   111  C          0.14709840       0.72637000       0.55001900
   112  C          0.85290160       0.22637000       0.94998100
   113  H          0.92140000       0.28130000       0.47750000
   114  H          0.07860000       0.78130000       0.02250000
   115  H          0.07860000       0.71870000       0.52250000
   116  H          0.92140000       0.21870000       0.97750000
   117  C          0.94462170       0.47703000       0.36705900
   118  C          0.05537830      -0.02297000       0.13294100
   119  C          0.05537830       0.52297000       0.63294100
   120  C          0.94462170       0.02297000       0.86705900
   121  C          0.90884170       0.62034000       0.31819900
   122  C          0.09115830       0.12034000       0.18180100
   123  C          0.09115830       0.37966000       0.68180100
   124  C          0.90884170       0.87966000       0.81819900
   125  H          0.84050000       0.59760000       0.29640000
   126  H          0.15950000       0.09760000       0.20360000
   127  H          0.15950000       0.40240000       0.70360000
   128  H          0.84050000       0.90240000       0.79640000
   129  C          0.07128170       0.83194000       0.33267100
   130  C          0.92871830       0.33194000       0.16732900
   131  C          0.92871830       0.16806000       0.66732900
   132  C          0.07128170       0.66806000       0.83267100
   133  H          0.11440000       0.95280000       0.32100000
   134  H          0.88560000       0.45280000       0.17900000
   135  H          0.88560000       0.04720000       0.67900000
   136  H          0.11440000       0.54720000       0.82100000
   137  C          0.04442170       0.51304000       0.39789100
   138  C          0.95557830       0.01304000       0.10210900
   139  C          0.95557830       0.48696000       0.60210900
   140  C          0.04442170      -0.01304000       0.89789100
   141  H          0.07030000       0.41470000       0.43080000
   142  H          0.92970000       0.91470000       0.06920000
   143  H          0.92970000       0.58530000       0.56920000
   144  H          0.07030000       0.08530000       0.93080000
   145  C          0.10735170       0.69074000       0.38148100
   146  C          0.89264830       0.19074000       0.11851900
   147  C          0.89264830       0.30926000       0.61851900
   148  C          0.10735170       0.80926000       0.88148100
   149  H          0.17510000       0.71550000       0.40370000
   150  H          0.82490000       0.21550000       0.09630000
   151  H          0.82490000       0.28450000       0.59630000
   152  H          0.17510000       0.78450000       0.90370000
   153  C          0.87612190       0.28004000       0.38300100
   154  C          0.12387810       0.78004000       0.11699900
   155  C          0.12387810       0.71996000       0.61699900
   156  C          0.87612190       0.21996000       0.88300100
   157  H          0.91140000       0.13560000       0.37380000
   158  H          0.08860000       0.63560000       0.12620000
   159  H          0.08860000       0.86440000       0.62620000
   160  H          0.91140000       0.36440000       0.87380000
   161  H          0.80810000       0.28720000       0.35600000
   162  H          0.19190000       0.78720000       0.14400000
   163  H          0.19190000       0.71280000       0.64400000
   164  H          0.80810000       0.21280000       0.85600000
   165  C          0.79961160       0.04833000       0.46086900
   166  C          0.20038840       0.54833000       0.03913100
   167  C          0.20038840       0.95167000       0.53913100
   168  C          0.79961160       0.45167000       0.96086900
   169  C          0.97217170       0.79574000       0.30114100
   170  C          0.02782830       0.29574000       0.19885900
   171  C          0.02782830       0.20426000       0.69885900
   172  C          0.97217170       0.70426000       0.80114100
   173  H          0.94720000       0.89170000       0.26750000
   174  H          0.05280000       0.39170000       0.23250000
   175  H          0.05280000       0.10830000       0.73250000
   176  H          0.94720000       0.60830000       0.76750000
