data_AVIMEY
_symmetry_space_group_name_H-M    'P1'
_symmetry_Int_Tables_number       1
loop_
_symmetry_equiv_pos_site_id
_symmetry_equiv_pos_as_xyz
1 x,y,z
_cell_length_a                   8.49306
_cell_length_b                   8.59727
_cell_length_c                   11.52909
_cell_angle_alpha                90.0
_cell_angle_beta                 109.2032
_cell_angle_gamma                90.0
loop_
_atom_site_label
_atom_site_type_symbol
_atom_site_fract_x
_atom_site_fract_y
_atom_site_fract_z
     1  C          0.09402120       0.29775110       0.46631900
     2  C          0.90597880       0.79775110       0.03368100
     3  C          0.90597880       0.70224890       0.53368100
     4  C          0.09402120       0.20224890       0.96631900
     5  H         -0.00890000       0.35630000       0.42770000
     6  H          0.00890000       0.85630000       0.07230000
     7  H          0.00890000       0.64370000       0.57230000
     8  H         -0.00890000       0.14370000       0.92770000
     9  C          0.49412130       0.37433130       0.66205100
    10  C          0.50587870       0.87433130       0.83794900
    11  C          0.50587870       0.62566870       0.33794900
    12  C          0.49412130       0.12566870       0.16205100
    13  H          0.44720000       0.44690000       0.70080000
    14  H          0.55280000       0.94690000       0.79920000
    15  H          0.55280000       0.55310000       0.29920000
    16  H          0.44720000       0.05310000       0.20080000
    17  C          0.24211120       0.40281110       0.47088900
    18  C          0.75788880       0.90281110       0.02911100
    19  C          0.75788880       0.59718890       0.52911100
    20  C          0.24211120       0.09718890       0.97088900
    21  H          0.23820000       0.42520000       0.38750000
    22  H          0.76180000       0.92520000       0.11250000
    23  H          0.76180000       0.57480000       0.61250000
    24  H          0.23820000       0.07480000       0.88750000
    25  H          0.23070000       0.50060000       0.50930000
    26  H          0.76930000       0.00060000      -0.00930000
    27  H          0.76930000       0.49940000       0.49070000
    28  H          0.23070000      -0.00060000       0.00930000
    29  C          0.09564110       0.24588110       0.59286900
    30  C          0.90435890       0.74588110       0.90713100
    31  C          0.90435890       0.75411890       0.40713100
    32  C          0.09564110       0.25411890       0.09286900
    33  C          0.48429130       0.22604120       0.48357900
    34  C          0.51570870       0.72604120       0.01642100
    35  C          0.51570870       0.77395880       0.51642100
    36  C          0.48429130       0.27395880       0.98357900
    37  H          0.43100000       0.19910000       0.40190000
    38  H          0.56900000       0.69910000       0.09810000
    39  H          0.56900000       0.80090000       0.59810000
    40  H          0.43100000       0.30090000       0.90190000
    41  C          0.40987120       0.33302110       0.54014900
    42  C          0.59012880       0.83302110       0.95985100
    43  C          0.59012880       0.66697890       0.45985100
    44  C          0.40987120       0.16697890       0.04014900
    45  C          0.71910130       0.19952130       0.66954100
    46  C          0.28089870       0.69952130       0.83045900
    47  C          0.28089870       0.80047870       0.33045900
    48  C          0.71910130       0.30047870       0.16954100
    49  H          0.82090000       0.15420000       0.71280000
    50  H          0.17910000       0.65420000       0.78720000
    51  H          0.17910000       0.84580000       0.28720000
    52  H          0.82090000       0.34580000       0.21280000
    53  C          0.63739130       0.15910130       0.54775100
    54  C          0.36260870       0.65910130       0.95224900
    55  C          0.36260870       0.84089870       0.45224900
    56  C          0.63739130       0.34089870       0.04775100
    57  H          0.68520000       0.08720000       0.50910000
    58  H          0.31480000       0.58720000      -0.00910000
    59  H          0.31480000       0.91280000       0.49090000
    60  H          0.68520000       0.41280000       0.00910000
    61  C          0.64768130       0.30794140       0.72610100
    62  C          0.35231870       0.80794140       0.77389900
    63  C          0.35231870       0.69205860       0.27389900
    64  C          0.64768130       0.19205860       0.22610100
    65  H          0.70260000       0.33650000       0.80720000
    66  H          0.29740000       0.83650000       0.69280000
    67  H          0.29740000       0.66350000       0.19280000
    68  H          0.70260000       0.16350000       0.30720000
    69  O          0.09397900       0.16600900       0.39162600
    70  O          0.90602100       0.66600900       0.10837400
    71  O          0.90602100       0.83399100       0.60837400
    72  O          0.09397900       0.33399100       0.89162600
    73  O          0.10243900       0.36642900       0.66560700
    74  O          0.89756100       0.86642900       0.83439300
    75  O          0.89756100       0.63357100       0.33439300
    76  O          0.10243900       0.13357100       0.16560700
    77  O          0.08709900       0.11115900       0.62141700
    78  O          0.91290100       0.61115900       0.87858300
    79  O          0.91290100       0.88884100       0.37858300
    80  O          0.08709900       0.38884100       0.12141700
    81  H          0.04320000       0.09120000       0.41021500
    82  H          0.95680000       0.59120000       0.08978500
    83  H          0.95680000       0.90880000       0.58978500
    84  H          0.04320000       0.40880000       0.91021500
    85  H          0.09920000       0.33691900       0.73771700
    86  H          0.90080000       0.83691900       0.76228300
    87  H          0.90080000       0.66308100       0.26228300
    88  H          0.09920000       0.16308100       0.23771700
