data_AWAXOM01
_symmetry_space_group_name_H-M    'P1'
_symmetry_Int_Tables_number       1
loop_
_symmetry_equiv_pos_site_id
_symmetry_equiv_pos_as_xyz
1 x,y,z
_cell_length_a                   8.27237
_cell_length_b                   8.50695
_cell_length_c                   18.60621
_cell_angle_alpha                85.7194
_cell_angle_beta                 86.7905
_cell_angle_gamma                75.7366
loop_
_atom_site_label
_atom_site_type_symbol
_atom_site_fract_x
_atom_site_fract_y
_atom_site_fract_z
     1  C          0.81932000       0.21312000       0.07264100
     2  C          0.18068000       0.78688000       0.92735900
     3  O          0.30837160       0.13434180       0.98777200
     4  O          0.69162840       0.86565820       0.01222800
     5  C          0.10942000       0.07432000       0.07471100
     6  C          0.89058000       0.92568000       0.92528900
     7  C          0.91702000       0.00232000       0.16521100
     8  C          0.08298000      -0.00232000       0.83478900
     9  O          0.53471160       0.34132000       0.06298900
    10  O          0.46528840       0.65868000       0.93701100
    11  O          0.73962180       0.91735810       0.25570900
    12  O          0.26037820       0.08264190       0.74429100
    13  O          0.39090180       0.93318000       0.07091100
    14  O          0.60909820       0.06682000       0.92908900
    15  C          0.78802000       0.11832000       0.13314100
    16  C          0.21198000       0.88168000       0.86685900
    17  H          0.67970000       0.13250000       0.15250000
    18  H          0.32030000       0.86750000       0.84750000
    19  O          0.71583180       0.43082000       0.98850100
    20  O          0.28416820       0.56918000       0.01149900
    21  O          0.01251170       0.80806810       0.25893800
    22  O          0.98748830       0.19193190       0.74106200
    23  C          0.07752000       0.98038000       0.13534100
    24  C          0.92248000       0.01962000       0.86465900
    25  H          0.16430000       0.90230000       0.15610000
    26  H          0.83570000       0.09770000       0.84390000
    27  C          0.98042000       0.19192000       0.04372100
    28  C          0.01958000       0.80808000       0.95627900
    29  H          0.00230000       0.25630000       0.00350000
    30  H         -0.00230000       0.74370000      -0.00350000
    31  C          0.28072000       0.04672000       0.04209100
    32  C          0.71928000       0.95328000       0.95790900
    33  C          0.88012000       0.90548000       0.23083110
    34  C          0.11988000       0.09452000       0.76916890
    35  C          0.68112000       0.33662000       0.03929110
    36  C          0.31888000       0.66338000       0.96070890
    37  H          0.98630000       0.75070000       0.29611000
    38  H          0.01370000       0.24930000       0.70389000
    39  H          0.63850000       0.50250000       0.96870000
    40  H          0.36150000       0.49750000       0.03130000
    41  H          0.49120000       0.90550000       0.05320000
    42  H          0.50880000       0.09450000       0.94680000
    43  C          0.89273000       0.49233000       0.18727110
    44  C          0.10727000       0.50767000       0.81272890
    45  C          0.00503000       0.28263000       0.27753110
    46  C         -0.00503000       0.71737000       0.72246890
    47  H          0.09690000       0.20990000       0.29750000
    48  H          0.90310000       0.79010000       0.70250000
    49  C          0.71373000       0.39643000       0.27646120
    50  C          0.28627000       0.60357000       0.72353880
    51  H          0.60670000       0.40120000       0.29590000
    52  H          0.39330000       0.59880000       0.70410000
    53  C          0.73223000       0.49893000       0.21709120
    54  C          0.26777000       0.50107000       0.78290880
    55  C          0.77813000       0.32463000       0.49109110
    56  C          0.22187000       0.67537000       0.50890890
    57  H          0.66480000       0.35640000       0.48200000
    58  H          0.33520000       0.64360000       0.51800000
    59  C          0.11383000       0.23432000       0.51828120
    60  C          0.88617000       0.76568000       0.48171880
    61  C          0.02993000       0.38303000       0.21813110
    62  C          0.97007000       0.61697000       0.78186890
    63  C          0.00173000       0.33102000       0.56528100
    64  C         -0.00173000       0.66898000       0.43471900
    65  C          0.84633000       0.28703000       0.30839110
    66  C          0.15367000       0.71297000       0.69160890
    67  C          0.88443000       0.23022000       0.44265110
    68  C          0.11557000       0.76978000       0.55734890
    69  C          0.82273000       0.18083000       0.37481120
    70  C          0.17727000       0.81917000       0.62518880
    71  H          0.88120000       0.06950000       0.36680000
    72  H          0.11880000       0.93050000       0.63320000
    73  H          0.70490000       0.18410000       0.38200000
    74  H          0.29510000       0.81590000       0.61800000
    75  N          0.91744000       0.59073000       0.12697120
    76  N          0.08256000       0.40927000       0.87302880
    77  C          0.05243000       0.18543000       0.45816120
    78  C          0.94757000       0.81457000       0.54183880
    79  H          0.12670000       0.11980000       0.42700000
    80  H          0.87330000       0.88020000       0.57300000
    81  C          0.83253000       0.37423000       0.55257110
    82  C          0.16747000       0.62577000       0.44742890
    83  N          0.05723000       0.37753000       0.63007100
    84  N          0.94277000       0.62247000       0.36992900
    85  C          0.20383000       0.37573000       0.18783140
    86  C          0.79617000       0.62427000       0.81216860
    87  H          0.28220000       0.29480000       0.21530000
    88  H          0.71780000       0.70520000       0.78470000
    89  H          0.22830000       0.47970000       0.19030000
    90  H          0.77170000       0.52030000       0.80970000
    91  H          0.21170000       0.34800000       0.13850000
    92  H          0.78830000       0.65200000       0.86150000
    93  C          0.58403000       0.61823000       0.18425150
    94  C          0.41597000       0.38177000       0.81574850
    95  H          0.62140000       0.67760000       0.14340000
    96  H          0.37860000       0.32240000       0.85660000
    97  H          0.52920000       0.69240000       0.21950000
    98  H          0.47080000       0.30760000       0.78050000
    99  H          0.50730000       0.56020000       0.16900000
   100  H          0.49270000       0.43980000       0.83100000
   101  C          0.71033000       0.47473000       0.60497130
   102  C          0.28967000       0.52527000       0.39502870
   103  H          0.76960000       0.49770000       0.64420000
   104  H          0.23040000       0.50230000       0.35580000
   105  H          0.63050000       0.41520000       0.62330000
   106  H          0.36950000       0.58480000       0.37670000
   107  H          0.65330000       0.57480000       0.58060000
   108  H          0.34670000       0.42520000       0.41940000
   109  C          0.29813000       0.18394000       0.53148150
   110  C          0.70187000       0.81606000       0.46851850
   111  H          0.35500000       0.11840000       0.49360000
   112  H          0.64500000       0.88160000       0.50640000
   113  H          0.31590000       0.12220000       0.57690000
   114  H          0.68410000       0.87780000       0.42310000
   115  H          0.34080000       0.27890000       0.53240000
   116  H          0.65920000       0.72110000       0.46760000
   117  H          0.02540000       0.48740000       0.63821700
   118  H          0.97460000       0.51260000       0.36178300
   119  H          0.15740000       0.36640000       0.63121700
   120  H          0.84260000       0.63360000       0.36878300
   121  H          0.83840000       0.64840000       0.11701800
   122  H          0.16160000       0.35160000       0.88298200
   123  H          0.01540000       0.56740000       0.09941900
   124  H          0.98460000       0.43260000       0.90058100
   125  C          0.37584000       0.90975000       0.32713000
   126  C          0.62416000       0.09025000       0.67287000
   127  H          0.33880000       0.89700000       0.28040000
   128  H          0.66120000       0.10300000       0.71960000
   129  H          0.28600000       0.91230000       0.36230000
   130  H          0.71400000       0.08770000       0.63770000
   131  H          0.46790000       0.82020000       0.33950000
   132  H          0.53210000       0.17980000       0.66050000
   133  O          0.42663000       0.05523000       0.32586180
   134  O          0.57337000       0.94477000       0.67413820
   135  H          0.53361600       0.04030000       0.32280000
   136  H          0.46638400       0.95970000       0.67720000
