data_AWAXOM
_symmetry_space_group_name_H-M    'P1'
_symmetry_Int_Tables_number       1
loop_
_symmetry_equiv_pos_site_id
_symmetry_equiv_pos_as_xyz
1 x,y,z
_cell_length_a                   4.82056
_cell_length_b                   16.3552
_cell_length_c                   17.3043
_cell_angle_alpha                107.51613
_cell_angle_beta                 92.09811
_cell_angle_gamma                94.3171
loop_
_atom_site_label
_atom_site_type_symbol
_atom_site_fract_x
_atom_site_fract_y
_atom_site_fract_z
     1  C          0.11401000       0.77488000       0.57792000
     2  C          0.88599000       0.22512000       0.42208000
     3  H          0.12930000       0.71950000       0.58530000
     4  H          0.87070000       0.28050000       0.41470000
     5  H          0.06080000       0.81430000       0.62730000
     6  H          0.93920000       0.18570000       0.37270000
     7  H          0.29050000       0.79610000       0.56400000
     8  H          0.70950000       0.20390000       0.43600000
     9  C          0.38769000       0.59618000       0.36202000
    10  C          0.61231000       0.40382000       0.63798000
    11  H          0.45090000       0.55200000       0.38240000
    12  H          0.54910000       0.44800000       0.61760000
    13  H          0.41840000       0.58240000       0.30520000
    14  H          0.58160000       0.41760000       0.69480000
    15  H          0.19230000       0.60020000       0.36960000
    16  H          0.80770000       0.39980000       0.63040000
    17  C          0.66519000       0.08402000       0.20862000
    18  C          0.33481000       0.91598000       0.79138000
    19  H          0.75690000       0.08430000       0.16040000
    20  H          0.24310000       0.91570000       0.83960000
    21  H          0.72320000       0.13620000       0.25130000
    22  H          0.27680000       0.86380000       0.74870000
    23  H          0.46700000       0.08000000       0.19790000
    24  H          0.53300000       0.92000000       0.80210000
    25  H          0.74910000       0.55770000       0.45720000
    26  H          0.25090000       0.44230000       0.54280000
    27  H         -0.01290000       0.00330000       0.11120000
    28  H          0.01290000      -0.00330000       0.88880000
    29  H          0.95020000       0.61680000       0.51620000
    30  H          0.04980000       0.38320000       0.48380000
    31  H          0.18516000       0.92660000       0.10240000
    32  H          0.81484000       0.07340000       0.89760000
    33  C          0.92012000       0.95018000       0.18990180
    34  C          0.07988000       0.04982000       0.81009820
    35  C          0.75023000       0.68760810       0.46927170
    36  C          0.24977000       0.31239190       0.53072830
    37  C          0.54742000       0.68148000       0.40728180
    38  C          0.45258000       0.31852000       0.59271820
    39  C          0.83761000       0.83898000       0.48844190
    40  C          0.16239000       0.16102000       0.51155810
    41  H          0.93450000       0.89180000       0.51590000
    42  H          0.06550000       0.10820000       0.48410000
    43  N          0.79282000       0.61488000       0.49609170
    44  N          0.20718000       0.38512000       0.50390830
    45  C          0.87942000       0.86958000       0.28365190
    46  C          0.12058000       0.13042000       0.71634810
    47  H          0.92590000       0.82310000       0.30030000
    48  H          0.07410000       0.17690000       0.69970000
    49  C         -0.00828000       0.88058000       0.21429180
    50  C          0.00828000       0.11942000       0.78570820
    51  C          0.89562000       0.76688000       0.51021180
    52  C          0.10438000       0.23312000       0.48978820
    53  C          0.70172000       0.92488000       0.32874180
    54  C          0.29828000       0.07512000       0.67125820
    55  N          0.01471000       0.95837000       0.11456180
    56  N         -0.01471000       0.04163000       0.88543820
    57  C          0.63932000       0.83468000       0.42682180
    58  C          0.36068000       0.16532000       0.57317820
    59  C          0.74092000       0.00825190       0.23411190
    60  C          0.25908000      -0.00825190       0.76588810
    61  C          0.63492000      -0.00692000       0.30172190
    62  C          0.36508000       0.00692000       0.69827810
    63  H          0.51260000       0.03050000       0.33080000
    64  H          0.48740000       0.96950000       0.66920000
    65  C          0.49652000       0.75498000       0.38745180
    66  C          0.50348000       0.24502000       0.61254820
    67  H          0.36200000       0.75090000       0.34630000
    68  H          0.63800000       0.24910000       0.65370000
    69  C          0.57901000       0.91428000       0.40462000
    70  C          0.42099000       0.08572000       0.59538000
    71  H          0.64650000       0.96420000       0.44980000
    72  H          0.35350000       0.03580000       0.55020000
    73  H          0.37850000       0.91470000       0.39840000
    74  H          0.62150000       0.08530000       0.60160000
    75  C          0.18079000       0.81768000       0.16702000
    76  C          0.81921000       0.18232000       0.83298000
    77  H          0.20470000       0.77420000       0.19300000
    78  H          0.79530000       0.22580000       0.80700000
    79  H          0.35850000       0.84740000       0.16500000
    80  H          0.64150000       0.15260000       0.83500000
    81  H          0.09990000       0.79130000       0.11290000
    82  H          0.90010000       0.20870000       0.88710000
    83  O          0.62259000       0.56192000       0.09602000
    84  O          0.37741000       0.43808000       0.90398000
    85  C          0.70820000       0.63054000       0.16084000
    86  C          0.29180000       0.36946000       0.83916000
    87  H          0.90770000       0.63880000       0.16490000
    88  H          0.09230000       0.36120000       0.83510000
    89  H          0.64300000       0.62050000       0.20930000
    90  H          0.35700000       0.37950000       0.79070000
    91  H          0.63320000       0.68100000       0.15420000
    92  H          0.36680000       0.31900000       0.84580000
    93  H          0.65715000       0.57440000       0.05320000
    94  H          0.34285000       0.42560000       0.94680000
    95  H          0.35413000       0.36930000       0.40391200
    96  H          0.64587000       0.63070000       0.59608800
    97  H          0.33690000       0.50230000       0.12020000
    98  H          0.66310000       0.49770000       0.87980000
    99  H          0.24470000       0.11520000       0.95780000
   100  H          0.75530000       0.88480000       0.04220000
   101  O          0.14416000       0.13855150       0.08864130
   102  O          0.85584000       0.86144850       0.91135870
   103  C          0.84727000       0.38991190       0.21221190
   104  C          0.15273000       0.61008810       0.78778810
   105  H          0.96560000       0.43510000       0.24590000
   106  H          0.03440000       0.56490000       0.75410000
   107  O          0.76926000       0.43258150       0.38200130
   108  O          0.23074000       0.56741850       0.61799870
   109  C          0.47477000       0.27956180       0.19505170
   110  C          0.52523000       0.72043820       0.80494830
   111  H          0.33740000       0.25200000       0.21710000
   112  H          0.66260000       0.74800000       0.78290000
   113  C          0.60708000       0.37932000       0.33359180
   114  C          0.39292000       0.62068000       0.66640820
   115  C          0.64257000       0.34851180       0.24504170
   116  C          0.35743000       0.65148820       0.75495830
   117  C          0.32428000       0.17462000       0.06114180
   118  C          0.67572000       0.82538000       0.93885820
   119  C          0.50817000       0.25077190       0.11206170
   120  C          0.49183000       0.74922810       0.88793830
   121  O          0.37866000       0.34395170       0.35376140
   122  O          0.62134000       0.65604830       0.64623860
   123  C          0.70398000       0.29452000       0.07950190
   124  C          0.29602000       0.70548000       0.92049810
   125  H          0.72170000       0.27720000       0.02370000
   126  H          0.27830000       0.72280000       0.97630000
   127  O          0.37767000       0.15098190       0.98456860
   128  O          0.62233000       0.84901810       0.01543140
   129  O          0.24307000       0.47060180       0.14307160
   130  O          0.75693000       0.52939820       0.85692840
   131  C          0.08458000       0.40932000       0.09142000
   132  C          0.91542000       0.59068000       0.90858000
   133  C          0.87497000       0.36392000       0.12911190
   134  C          0.12503000       0.63608000       0.87088810
   135  O          0.10247000       0.38896190       0.01874160
   136  O          0.89753000       0.61103810       0.98125840
