data_AWAXOM02
_symmetry_space_group_name_H-M    'P1'
_symmetry_Int_Tables_number       1
loop_
_symmetry_equiv_pos_site_id
_symmetry_equiv_pos_as_xyz
1 x,y,z
_cell_length_a                   8.28504
_cell_length_b                   8.31154
_cell_length_c                   18.55927
_cell_angle_alpha                86.2344
_cell_angle_beta                 86.7494
_cell_angle_gamma                75.4935
loop_
_atom_site_label
_atom_site_type_symbol
_atom_site_fract_x
_atom_site_fract_y
_atom_site_fract_z
     1  O          0.69120880       0.86375120       0.01201500
     2  O          0.30879120       0.13624880       0.98798500
     3  O          0.25886120       0.09148120       0.74312500
     4  O          0.74113880       0.90851880       0.25687500
     5  O          0.46694120       0.66408130       0.93733600
     6  O          0.53305880       0.33591870       0.06266400
     7  O          0.98312880       0.19968120       0.74011500
     8  O          0.01687120       0.80031880       0.25988500
     9  O          0.60641880       0.07097130       0.92897600
    10  O          0.39358120       0.92902870       0.07102400
    11  O          0.28575130       0.56634130       0.01100600
    12  O          0.71424870       0.43365870       0.98899400
    13  C          0.08156160       0.00279150       0.83434600
    14  C          0.91843840      -0.00279150       0.16565400
    15  C          0.18082150       0.78977150       0.92719700
    16  C          0.81917850       0.21022850       0.07280300
    17  C          0.21220160       0.88693150       0.86655700
    18  C          0.78779840       0.11306850       0.13344300
    19  H          0.32300000       0.87400000       0.84720000
    20  H          0.67700000       0.12600000       0.15280000
    21  C          0.88930850       0.92757150       0.92494600
    22  C          0.11069150       0.07242850       0.07505400
    23  C          0.91998840       0.02425150       0.86402700
    24  C          0.08001160       0.97574850       0.13597300
    25  H          0.83070000       0.10480000       0.84270000
    26  H          0.16930000       0.89520000       0.15730000
    27  C          0.31998160       0.66487160       0.96092700
    28  C          0.68001840       0.33512840       0.03907300
    29  C          0.11761160       0.10268160       0.76814700
    30  C          0.88238840       0.89731840       0.23185300
    31  C          0.71828840       0.95398160       0.95775700
    32  C          0.28171160       0.04601840       0.04224300
    33  C          0.01927160       0.80898150       0.95609700
    34  C          0.98072840       0.19101850       0.04390300
    35  H         -0.00230000       0.74130000      -0.00300000
    36  H          0.00230000       0.25870000       0.00300000
    37  H          0.01430000       0.26530000       0.70411100
    38  H          0.98570000       0.73470000       0.29588900
    39  H          0.49970000       0.09740000       0.94991700
    40  H          0.50030000       0.90260000       0.05008300
    41  H          0.55030000       0.58840000       0.95611800
    42  H          0.44970000       0.41160000       0.04388200
    43  C          0.89542830       0.48802160       0.18684700
    44  C          0.10457170       0.51197840       0.81315300
    45  N          0.91958820       0.59198160       0.12749700
    46  N          0.08041180       0.40801840       0.87250300
    47  C          0.03406170       0.37674160       0.21787700
    48  C          0.96593830       0.62325840       0.78212300
    49  C          0.00877170       0.27363160       0.27716700
    50  C         -0.00877170       0.72636840       0.72283300
    51  H          0.10260000       0.19750000       0.29750000
    52  H          0.89740000       0.80250000       0.70250000
    53  C          0.77559830       0.31952170       0.49156700
    54  C          0.22440170       0.68047830       0.50843300
    55  H          0.65970000       0.34800000       0.48290000
    56  H          0.34030000       0.65200000       0.51710000
    57  C          0.88648820       0.22416160       0.44250700
    58  C          0.11351180       0.77583840       0.55749300
    59  N          0.05569170       0.38471150       0.62914600
    60  N          0.94430830       0.61528850       0.37085400
    61  C          0.71536820       0.38964170       0.27650700
    62  C          0.28463180       0.61035830       0.72349300
    63  H          0.60630000       0.39420000       0.29650000
    64  H          0.39370000       0.60580000       0.70350000
    65  C          0.85009820       0.27822160       0.30789700
    66  C          0.14990180       0.72177840       0.69210300
    67  C          0.00042170       0.33381150       0.56480600
    68  C         -0.00042170       0.66618850       0.43519400
    69  C          0.73442830       0.49512160       0.21669700
    70  C          0.26557170       0.50487840       0.78330300
    71  C          0.82664810       0.16903180       0.37465700
    72  C          0.17335190       0.83096820       0.62534300
    73  H          0.70680000       0.17110000       0.38190000
    74  H          0.29320000       0.82890000       0.61810000
    75  H          0.88850000       0.05280000       0.36660000
    76  H          0.11150000       0.94720000       0.63340000
    77  C          0.05495180       0.18336160       0.45680700
    78  C          0.94504820       0.81663840       0.54319300
    79  H          0.13190000       0.11660000       0.42420000
    80  H          0.86810000       0.88340000       0.57580000
    81  C          0.11529170       0.23662160       0.51709700
    82  C          0.88470830       0.76337840       0.48290300
    83  C          0.70732810       0.47514190       0.60630800
    84  C          0.29267190       0.52485810       0.39369200
    85  H          0.72650000       0.58670000       0.60700000
    86  H          0.27350000       0.41330000       0.39300000
    87  H          0.72250000       0.42000000       0.65460000
    88  H          0.27750000       0.58000000       0.34540000
    89  H          0.59330000       0.48410000       0.59190000
    90  H          0.40670000       0.51590000       0.40810000
    91  C          0.58561810       0.61663180       0.18451800
    92  C          0.41438190       0.38336820       0.81548200
    93  H          0.59580000       0.73050000       0.18880000
    94  H          0.40420000       0.26950000       0.81120000
    95  H          0.48330000       0.60250000       0.21040000
    96  H          0.51670000       0.39750000       0.78960000
    97  H          0.58120000       0.59580000       0.13340000
    98  H          0.41880000       0.40420000       0.86660000
    99  C          0.82998830       0.37443160       0.55305700
   100  C          0.17001170       0.62556840       0.44694300
   101  C          0.20744180       0.37208190       0.18743800
   102  C          0.79255820       0.62791810       0.81256200
   103  H          0.21680000       0.34160000       0.13700000
   104  H          0.78320000       0.65840000       0.86300000
   105  H          0.28890000       0.28960000       0.21560000
   106  H          0.71110000       0.71040000       0.78440000
   107  H          0.22940000       0.48200000       0.18990000
   108  H          0.77060000       0.51800000       0.81010000
   109  C          0.29917190       0.19112000       0.52997800
   110  C          0.70082810       0.80888000       0.47002200
   111  H          0.33760000       0.29270000       0.53280000
   112  H          0.66240000       0.70730000       0.46720000
   113  H          0.35980000       0.12700000       0.49000000
   114  H          0.64020000       0.87300000       0.51000000
   115  H          0.31990000       0.12380000       0.57540000
   116  H          0.68010000       0.87620000       0.42460000
   117  H          0.00620000       0.48951900       0.63611000
   118  H         -0.00620000       0.51048100       0.36389000
   119  H          0.16461900       0.37820000       0.62711000
   120  H          0.83538100       0.62180000       0.37289000
   121  H          0.83380000       0.64720000       0.10351100
   122  H          0.16620000       0.35280000       0.89648900
   123  H          0.01820000       0.57930000       0.10461100
   124  H          0.98180000       0.42070000       0.89538900
   125  O          0.43203160       0.05363160       0.32808700
   126  O          0.56796840       0.94636840       0.67191300
   127  C          0.38332000       0.90282000       0.32927120
   128  C          0.61668000       0.09718000       0.67072880
   129  H          0.31420000       0.90390000       0.28800000
   130  H          0.68580000       0.09610000       0.71200000
   131  H          0.31900000       0.88960000       0.37430000
   132  H          0.68100000       0.11040000       0.62570000
   133  H          0.48270000       0.80980000       0.32640000
   134  H          0.51730000       0.19020000       0.67360000
   135  H          0.53420000       0.03230000       0.30251300
   136  H          0.46580000       0.96770000       0.69748700
