data_AZADAG02
_symmetry_space_group_name_H-M    'P1'
_symmetry_Int_Tables_number       1
loop_
_symmetry_equiv_pos_site_id
_symmetry_equiv_pos_as_xyz
1 x,y,z
_cell_length_a                   13.4707
_cell_length_b                   10.8785
_cell_length_c                   20.1191
_cell_angle_alpha                90.0
_cell_angle_beta                 90.0
_cell_angle_gamma                90.0
loop_
_atom_site_label
_atom_site_type_symbol
_atom_site_fract_x
_atom_site_fract_y
_atom_site_fract_z
     1  Cl         0.01245100       0.60291120       0.06619800
     2  Cl         0.48754900       0.39708880       0.56619800
     3  Cl         0.98754900       0.10291120       0.43380200
     4  Cl         0.51245100       0.89708880       0.93380200
     5  Cl         0.98754900       0.39708880       0.93380200
     6  Cl         0.51245100       0.60291120       0.43380200
     7  Cl         0.01245100       0.89708880       0.56619800
     8  Cl         0.48754900       0.10291120       0.06619800
     9  N          0.84098000       0.84683000       0.15297150
    10  N          0.65902000       0.15317000       0.65297150
    11  N          0.15902000       0.34683000       0.34702850
    12  N          0.34098000       0.65317000       0.84702850
    13  N          0.15902000       0.15317000       0.84702850
    14  N          0.34098000       0.84683000       0.34702850
    15  N          0.84098000       0.65317000       0.65297150
    16  N          0.65902000       0.34683000       0.15297150
    17  N          0.74288000       0.84073000       0.25413170
    18  N          0.75712000       0.15927000       0.75413170
    19  N          0.25712000       0.34073000       0.24586830
    20  N          0.24288000       0.65927000       0.74586830
    21  N          0.25712000       0.15927000       0.74586830
    22  N          0.24288000       0.84073000       0.24586830
    23  N          0.74288000       0.65927000       0.75413170
    24  N          0.75712000       0.34073000       0.25413170
    25  N          0.75327000       0.94303000       0.29022000
    26  N          0.74673000       0.05697000       0.79022000
    27  N          0.24673000       0.44303000       0.20978000
    28  N          0.25327000       0.55697000       0.70978000
    29  N          0.24673000       0.05697000       0.70978000
    30  N          0.25327000       0.94303000       0.20978000
    31  N          0.75327000       0.55697000       0.79022000
    32  N          0.74673000       0.44303000       0.29022000
    33  O          0.84068000       0.63883000       0.15341160
    34  O          0.65932000       0.36117000       0.65341160
    35  O          0.15932000       0.13883000       0.34658840
    36  O          0.34068000       0.86117000       0.84658840
    37  O          0.15932000       0.36117000       0.84658840
    38  O          0.34068000       0.63883000       0.34658840
    39  O          0.84068000       0.86117000       0.65341160
    40  O          0.65932000       0.13883000       0.15341160
    41  C          0.74247000       0.84934000       0.18302000
    42  C          0.75753000       0.15066000       0.68302000
    43  C          0.25753000       0.34934000       0.31698000
    44  C          0.24247000       0.65066000       0.81698000
    45  C          0.25753000       0.15066000       0.81698000
    46  C          0.24247000       0.84934000       0.31698000
    47  C          0.74247000       0.65066000       0.68302000
    48  C          0.75753000       0.34934000       0.18302000
    49  H          0.70970000       0.92510000       0.17020000
    50  H          0.79030000       0.07490000       0.67020000
    51  H          0.29030000       0.42510000       0.32980000
    52  H          0.20970000       0.57490000       0.82980000
    53  H          0.29030000       0.07490000       0.82980000
    54  H          0.20970000       0.92510000       0.32980000
    55  H          0.70970000       0.57490000       0.67020000
    56  H          0.79030000       0.42510000       0.17020000
    57  H          0.70380000       0.78170000       0.16510000
    58  H          0.79620000       0.21830000       0.66510000
    59  H          0.29620000       0.28170000       0.33490000
    60  H          0.20380000       0.71830000       0.83490000
    61  H          0.29620000       0.21830000       0.83490000
    62  H          0.20380000       0.78170000       0.33490000
    63  H          0.70380000       0.71830000       0.66510000
    64  H          0.79620000       0.28170000       0.16510000
    65  C          0.75446000       0.90526000       0.35203000
    66  C          0.74554000       0.09474000       0.85203000
    67  C          0.24554000       0.40526000       0.14797000
    68  C          0.25446000       0.59474000       0.64797000
    69  C          0.24554000       0.09474000       0.64797000
    70  C          0.25446000       0.90526000       0.14797000
    71  C          0.75446000       0.59474000       0.85203000
    72  C          0.74554000       0.40526000       0.35203000
    73  H          0.76090000       0.95740000       0.38830000
    74  H          0.73910000       0.04260000       0.88830000
    75  H          0.23910000       0.45740000       0.11170000
    76  H          0.26090000       0.54260000       0.61170000
    77  H          0.23910000       0.04260000       0.61170000
    78  H          0.26090000       0.95740000       0.11170000
    79  H          0.76090000       0.54260000       0.88830000
    80  H          0.73910000       0.45740000       0.38830000
    81  C          0.74526000       0.77966000       0.35713000
    82  C          0.75474000       0.22034000       0.85713000
    83  C          0.25474000       0.27966000       0.14287000
    84  C          0.24526000       0.72034000       0.64287000
    85  C          0.25474000       0.22034000       0.64287000
    86  C          0.24526000       0.77966000       0.14287000
    87  C          0.74526000       0.72034000       0.85713000
    88  C          0.75474000       0.27966000       0.35713000
    89  H          0.74390000       0.73210000       0.39550000
    90  H          0.75610000       0.26790000       0.89550000
    91  H          0.25610000       0.23210000       0.10450000
    92  H          0.24390000       0.76790000       0.60450000
    93  H          0.25610000       0.26790000       0.60450000
    94  H          0.24390000       0.73210000       0.10450000
    95  H          0.74390000       0.76790000       0.89550000
    96  H          0.75610000       0.23210000       0.39550000
    97  C          0.73847000       0.74124000       0.29293000
    98  C          0.76153000       0.25876000       0.79293000
    99  C          0.26153000       0.24124000       0.20707000
   100  C          0.23847000       0.75876000       0.70707000
   101  C          0.26153000       0.25876000       0.70707000
   102  C          0.23847000       0.74124000       0.20707000
   103  C          0.73847000       0.75876000       0.79293000
   104  C          0.76153000       0.24124000       0.29293000
   105  H          0.73190000       0.66030000       0.27850000
   106  H          0.76810000       0.33970000       0.77850000
   107  H          0.26810000       0.16030000       0.22150000
   108  H          0.23190000       0.83970000       0.72150000
   109  H          0.26810000       0.33970000       0.72150000
   110  H          0.23190000       0.66030000       0.22150000
   111  H          0.73190000       0.83970000       0.77850000
   112  H          0.76810000       0.16030000       0.27850000
   113  C          0.88047000       0.73535000       0.13822000
   114  C          0.61953000       0.26465000       0.63822000
   115  C          0.11953000       0.23535000       0.36178000
   116  C          0.38047000       0.76465000       0.86178000
   117  C          0.11953000       0.26465000       0.86178000
   118  C          0.38047000       0.73535000       0.36178000
   119  C          0.88047000       0.76465000       0.63822000
   120  C          0.61953000       0.23535000       0.13822000
   121  C          0.97957000       0.74044000       0.10222000
   122  C          0.52043000       0.25956000       0.60222000
   123  C          0.02043000       0.24044000       0.39778000
   124  C          0.47957000       0.75956000       0.89778000
   125  C          0.02043000       0.25956000       0.89778000
   126  C          0.47957000       0.74044000       0.39778000
   127  C          0.97957000       0.75956000       0.60222000
   128  C          0.52043000       0.24044000       0.10222000
   129  H          0.03080000       0.76430000       0.13360000
   130  H          0.46920000       0.23570000       0.63360000
   131  H          0.96920000       0.26430000       0.36640000
   132  H          0.53080000       0.73570000       0.86640000
   133  H          0.96920000       0.23570000       0.86640000
   134  H          0.53080000       0.76430000       0.36640000
   135  H          0.03080000       0.73570000       0.63360000
   136  H          0.46920000       0.26430000       0.13360000
   137  H          0.97640000       0.80310000       0.06800000
   138  H          0.52360000       0.19690000       0.56800000
   139  H          0.02360000       0.30310000       0.43200000
   140  H          0.47640000       0.69690000       0.93200000
   141  H          0.02360000       0.19690000       0.93200000
   142  H          0.47640000       0.80310000       0.43200000
   143  H          0.97640000       0.69690000       0.56800000
   144  H          0.52360000       0.30310000       0.06800000
   145  C          0.88867000       0.96084000       0.13642000
   146  C          0.61133000       0.03916000       0.63642000
   147  C          0.11133000       0.46084000       0.36358000
   148  C          0.38867000       0.53916000       0.86358000
   149  C          0.11133000       0.03916000       0.86358000
   150  C          0.38867000       0.96084000       0.36358000
   151  C          0.88867000       0.53916000       0.63642000
   152  C          0.61133000       0.46084000       0.13642000
   153  C          0.86067000       0.02035000       0.07823000
   154  C          0.63933000       0.97965000       0.57823000
   155  C          0.13933000       0.52035000       0.42177000
   156  C          0.36067000       0.47965000       0.92177000
   157  C          0.13933000       0.97965000       0.92177000
   158  C          0.36067000       0.02035000       0.42177000
   159  C          0.86067000       0.47965000       0.57823000
   160  C          0.63933000       0.52035000       0.07823000
   161  C          0.90645000       0.13056000       0.06403000
   162  C          0.59355000       0.86944000       0.56403000
   163  C          0.09355000       0.63056000       0.43597000
   164  C          0.40645000       0.36944000       0.93597000
   165  C          0.09355000       0.86944000       0.93597000
   166  C          0.40645000       0.13056000       0.43597000
   167  C          0.90645000       0.36944000       0.56403000
   168  C          0.59355000       0.63056000       0.06403000
   169  H          0.88870000       0.17330000       0.02580000
   170  H          0.61130000       0.82670000       0.52580000
   171  H          0.11130000       0.67330000       0.47420000
   172  H          0.38870000       0.32670000       0.97420000
   173  H          0.11130000       0.82670000       0.97420000
   174  H          0.38870000       0.17330000       0.47420000
   175  H          0.88870000       0.32670000       0.52580000
   176  H          0.61130000       0.67330000       0.02580000
   177  C          0.97734000       0.17796000       0.10505000
   178  C          0.52266000       0.82204000       0.60505000
   179  C          0.02266000       0.67796000       0.39495000
   180  C          0.47734000       0.32204000       0.89495000
   181  C          0.02266000       0.82204000       0.89495000
   182  C          0.47734000       0.17796000       0.39495000
   183  C          0.97734000       0.32204000       0.60505000
   184  C          0.52266000       0.67796000       0.10505000
   185  H          0.00810000       0.25180000       0.09430000
   186  H          0.49190000       0.74820000       0.59430000
   187  H         -0.00810000       0.75180000       0.40570000
   188  H          0.50810000       0.24820000       0.90570000
   189  H         -0.00810000       0.74820000       0.90570000
   190  H          0.50810000       0.25180000       0.40570000
   191  H          0.00810000       0.24820000       0.59430000
   192  H          0.49190000       0.75180000       0.09430000
   193  C          0.00284000       0.11826000       0.16074000
   194  C          0.49716000       0.88174000       0.66074000
   195  C         -0.00284000       0.61826000       0.33926000
   196  C          0.50284000       0.38174000       0.83926000
   197  C         -0.00284000       0.88174000       0.83926000
   198  C          0.50284000       0.11826000       0.33926000
   199  C          0.00284000       0.38174000       0.66074000
   200  C          0.49716000       0.61826000       0.16074000
   201  H          0.05140000       0.15190000       0.18810000
   202  H          0.44860000       0.84810000       0.68810000
   203  H          0.94860000       0.65190000       0.31190000
   204  H          0.55140000       0.34810000       0.81190000
   205  H          0.94860000       0.84810000       0.81190000
   206  H          0.55140000       0.15190000       0.31190000
   207  H          0.05140000       0.34810000       0.68810000
   208  H          0.44860000       0.65190000       0.18810000
   209  C          0.95897000       0.00764000       0.17893000
   210  C          0.54103000      -0.00764000       0.67893000
   211  C          0.04103000       0.50764000       0.32107000
   212  C          0.45897000       0.49236000       0.82107000
   213  C          0.04103000      -0.00764000       0.82107000
   214  C          0.45897000       0.00764000       0.32107000
   215  C          0.95897000       0.49236000       0.67893000
   216  C          0.54103000       0.50764000       0.17893000
   217  C         -0.00883000       0.94245000       0.24223000
   218  C          0.50883000       0.05755000       0.74223000
   219  C          0.00883000       0.44245000       0.25777000
   220  C          0.49117000       0.55755000       0.75777000
   221  C          0.00883000       0.05755000       0.75777000
   222  C          0.49117000       0.94245000       0.25777000
   223  C         -0.00883000       0.55755000       0.74223000
   224  C          0.50883000       0.44245000       0.24223000
   225  H          0.95340000       0.86820000       0.24740000
   226  H          0.54660000       0.13180000       0.74740000
   227  H          0.04660000       0.36820000       0.25260000
   228  H          0.45340000       0.63180000       0.75260000
   229  H          0.04660000       0.13180000       0.75260000
   230  H          0.45340000       0.86820000       0.25260000
   231  H          0.95340000       0.63180000       0.74740000
   232  H          0.54660000       0.36820000       0.24740000
   233  H          0.97990000      -0.00480000       0.27970000
   234  H          0.52010000       0.00480000       0.77970000
   235  H          0.02010000       0.49520000       0.22030000
   236  H          0.47990000       0.50480000       0.72030000
   237  H          0.02010000       0.00480000       0.72030000
   238  H          0.47990000      -0.00480000       0.22030000
   239  H          0.97990000       0.50480000       0.77970000
   240  H          0.52010000       0.49520000       0.27970000
   241  H          0.06050000       0.92270000       0.23940000
   242  H          0.43950000       0.07730000       0.73940000
   243  H          0.93950000       0.42270000       0.26060000
   244  H          0.56050000       0.57730000       0.76060000
   245  H          0.93950000       0.07730000       0.76060000
   246  H          0.56050000       0.92270000       0.26060000
   247  H          0.06050000       0.57730000       0.73940000
   248  H          0.43950000       0.42270000       0.23940000
   249  C          0.78406000       0.96696000       0.03252000
   250  C          0.71594000       0.03304000       0.53252000
   251  C          0.21594000       0.46696000       0.46748000
   252  C          0.28406000       0.53304000       0.96748000
   253  C          0.21594000       0.03304000       0.96748000
   254  C          0.28406000       0.96696000       0.46748000
   255  C          0.78406000       0.53304000       0.53252000
   256  C          0.71594000       0.46696000       0.03252000
   257  H          0.77450000       0.02100000      -0.00470000
   258  H          0.72550000       0.97900000       0.49530000
   259  H          0.22550000       0.52100000       0.50470000
   260  H          0.27450000       0.47900000       0.00470000
   261  H          0.22550000       0.97900000       0.00470000
   262  H          0.27450000       0.02100000       0.50470000
   263  H          0.77450000       0.47900000       0.49530000
   264  H          0.72550000       0.52100000      -0.00470000
   265  H          0.72250000       0.95750000       0.05600000
   266  H          0.77750000       0.04250000       0.55600000
   267  H          0.27750000       0.45750000       0.44400000
   268  H          0.22250000       0.54250000       0.94400000
   269  H          0.27750000       0.04250000       0.94400000
   270  H          0.22250000       0.95750000       0.44400000
   271  H          0.72250000       0.54250000       0.55600000
   272  H          0.77750000       0.45750000       0.05600000
   273  H          0.80610000       0.88820000       0.01680000
   274  H          0.69390000       0.11180000       0.51680000
   275  H          0.19390000       0.38820000       0.48320000
   276  H          0.30610000       0.61180000       0.98320000
   277  H          0.19390000       0.11180000       0.98320000
   278  H          0.30610000       0.88820000       0.48320000
   279  H          0.80610000       0.61180000       0.51680000
   280  H          0.69390000       0.38820000       0.01680000
