data_AZADAG
_symmetry_space_group_name_H-M    'P1'
_symmetry_Int_Tables_number       1
loop_
_symmetry_equiv_pos_site_id
_symmetry_equiv_pos_as_xyz
1 x,y,z
_cell_length_a                   7.2894
_cell_length_b                   17.8181
_cell_length_c                   10.6946
_cell_angle_alpha                90.0
_cell_angle_beta                 98.43412
_cell_angle_gamma                90.0
loop_
_atom_site_label
_atom_site_type_symbol
_atom_site_fract_x
_atom_site_fract_y
_atom_site_fract_z
     1  Cl         0.40194700       0.36056300       0.74623500
     2  Cl         0.59805300       0.86056300       0.75376500
     3  Cl         0.59805300       0.63943700       0.25376500
     4  Cl         0.40194700       0.13943700       0.24623500
     5  O          0.35622000       0.23813900       0.91958120
     6  O          0.64378000       0.73813900       0.58041880
     7  O          0.64378000       0.76186100       0.08041880
     8  O          0.35622000       0.26186100       0.41958120
     9  N          0.16782000       0.16222900       0.78702140
    10  N          0.83218000       0.66222900       0.71297860
    11  N          0.83218000       0.83777100       0.21297860
    12  N          0.16782000       0.33777100       0.28702140
    13  N         -0.01372000       0.08971900       0.91597130
    14  N          0.01372000       0.58971900       0.58402870
    15  N          0.01372000       0.91028100       0.08402870
    16  N         -0.01372000       0.41028100       0.41597130
    17  N          0.91948000       0.13232100       0.00407170
    18  N          0.08052000       0.63232100       0.49592830
    19  N          0.08052000       0.86767900      -0.00407170
    20  N          0.91948000       0.36767900       0.50407170
    21  C          0.16853000       0.10403110       0.88261170
    22  C          0.83147000       0.60403110       0.61738830
    23  C          0.83147000       0.89596890       0.11738830
    24  C          0.16853000       0.39596890       0.38261170
    25  H          0.21650000       0.05800000       0.85140000
    26  H          0.78350000       0.55800000       0.64860000
    27  H          0.78350000       0.94200000       0.14860000
    28  H          0.21650000       0.44200000       0.35140000
    29  H          0.25130000       0.11900000       0.95790000
    30  H          0.74870000       0.61900000       0.54210000
    31  H          0.74870000       0.88100000       0.04210000
    32  H          0.25130000       0.38100000       0.45790000
    33  C          0.75077000       0.10628140       0.00562000
    34  C          0.24923000       0.60628140       0.49438000
    35  C          0.24923000       0.89371860      -0.00562000
    36  C          0.75077000       0.39371860       0.50562000
    37  H          0.67020000       0.12500000       0.05790000
    38  H          0.32980000       0.62500000       0.44210000
    39  H          0.32980000       0.87500000       0.94210000
    40  H          0.67020000       0.37500000       0.55790000
    41  C          0.70667000       0.04819130       0.92112000
    42  C          0.29333000       0.54819130       0.57888000
    43  C          0.29333000       0.95180870       0.07888000
    44  C          0.70667000       0.45180870       0.42112000
    45  H          0.59630000       0.02130000       0.90610000
    46  H          0.40370000       0.52130000       0.59390000
    47  H          0.40370000       0.97870000       0.09390000
    48  H          0.59630000       0.47870000       0.40610000
    49  C          0.85997000       0.03905120       0.86483180
    50  C          0.14003000       0.53905120       0.63516820
    51  C          0.14003000       0.96094880       0.13516820
    52  C          0.85997000       0.46094880       0.36483180
    53  H          0.87530000       0.00420000       0.80240000
    54  H          0.12470000       0.50420000       0.69760000
    55  H          0.12470000      -0.00420000       0.19760000
    56  H          0.87530000       0.49580000       0.30240000
    57  C          0.26922000       0.22593110       0.81603160
    58  C          0.73078000       0.72593110       0.68396840
    59  C          0.73078000       0.77406890       0.18396840
    60  C          0.26922000       0.27406890       0.31603160
    61  C          0.26503000       0.27968110       0.70522180
    62  C          0.73497000       0.77968110       0.79477820
    63  C          0.73497000       0.72031890       0.29477820
    64  C          0.26503000       0.22031890       0.20522180
    65  H          0.13790000       0.29480000       0.67670000
    66  H          0.86210000       0.79480000       0.82330000
    67  H          0.86210000       0.70520000       0.32330000
    68  H          0.13790000       0.20520000       0.17670000
    69  H          0.31040000       0.25400000       0.63580000
    70  H          0.68960000       0.75400000       0.86420000
    71  H          0.68960000       0.74600000       0.36420000
    72  H          0.31040000       0.24600000       0.13580000
    73  C          0.07373000       0.14606100       0.66093170
    74  C          0.92627000       0.64606100       0.83906830
    75  C          0.92627000       0.85393900       0.33906830
    76  C          0.07373000       0.35393900       0.16093170
    77  C          0.16583000       0.10361120       0.57959190
    78  C          0.83417000       0.60361120       0.92040810
    79  C          0.83417000       0.89638880       0.42040810
    80  C          0.16583000       0.39638880       0.07959190
    81  C          0.07264000       0.08765130       0.46052000
    82  C          0.92736000       0.58765130       0.03948000
    83  C          0.92736000       0.91234870       0.53948000
    84  C          0.07264000       0.41234870       0.96052000
    85  H          0.12990000       0.05870000       0.40500000
    86  H          0.87010000       0.55870000       0.09500000
    87  H          0.87010000       0.94130000       0.59500000
    88  H          0.12990000       0.44130000       0.90500000
    89  C          0.89536000       0.11423150       0.42322000
    90  C          0.10464000       0.61423150       0.07678000
    91  C          0.10464000       0.88576850       0.57678000
    92  C          0.89536000       0.38576850       0.92322000
    93  H          0.83490000       0.10330000       0.34260000
    94  H          0.16510000       0.60330000       0.15740000
    95  H          0.16510000       0.89670000       0.65740000
    96  H          0.83490000       0.39670000       0.84260000
    97  C          0.80707000       0.15652140       0.50312000
    98  C          0.19293000       0.65652140      -0.00312000
    99  C          0.19293000       0.84347860       0.49688000
   100  C          0.80707000       0.34347860       0.00312000
   101  H          0.68790000       0.17420000       0.47590000
   102  H          0.31210000       0.67420000       0.02410000
   103  H          0.31210000       0.82580000       0.52410000
   104  H          0.68790000       0.32580000       0.97590000
   105  C          0.89377000       0.17328120       0.62442190
   106  C          0.10623000       0.67328120       0.87557810
   107  C          0.10623000       0.82671880       0.37557810
   108  C          0.89377000       0.32671880       0.12442190
   109  C          0.79357000       0.21898140       0.71062000
   110  C          0.20643000       0.71898140       0.78938000
   111  C          0.20643000       0.78101860       0.28938000
   112  C          0.79357000       0.28101860       0.21062000
   113  H          0.67250000       0.23180000       0.66780000
   114  H          0.32750000       0.73180000       0.83220000
   115  H          0.32750000       0.76820000       0.33220000
   116  H          0.67250000       0.26820000       0.16780000
   117  H          0.86220000       0.26400000       0.73410000
   118  H          0.13780000       0.76400000       0.76590000
   119  H          0.13780000       0.73600000       0.26590000
   120  H          0.86220000       0.23600000       0.23410000
   121  H          0.78170000       0.19040000       0.78500000
   122  H          0.21830000       0.69040000       0.71500000
   123  H          0.21830000       0.80960000       0.21500000
   124  H          0.78170000       0.30960000       0.28500000
   125  C          0.36133000       0.07626160       0.61702000
   126  C          0.63867000       0.57626160       0.88298000
   127  C          0.63867000       0.92373840       0.38298000
   128  C          0.36133000       0.42373840       0.11702000
   129  H          0.40610000       0.09210000       0.70180000
   130  H          0.59390000       0.59210000       0.79820000
   131  H          0.59390000       0.90790000       0.29820000
   132  H          0.40610000       0.40790000       0.20180000
   133  H          0.43910000       0.09670000       0.56040000
   134  H          0.56090000       0.59670000       0.93960000
   135  H          0.56090000       0.90330000       0.43960000
   136  H          0.43910000       0.40330000       0.06040000
   137  H          0.36360000       0.02250000       0.61270000
   138  H          0.63640000       0.52250000       0.88730000
   139  H          0.63640000       0.97750000       0.38730000
   140  H          0.36360000       0.47750000       0.11270000
