data_AZADAG01
_symmetry_space_group_name_H-M    'P1'
_symmetry_Int_Tables_number       1
loop_
_symmetry_equiv_pos_site_id
_symmetry_equiv_pos_as_xyz
1 x,y,z
_cell_length_a                   11.1482
_cell_length_b                   12.1732
_cell_length_c                   12.6892
_cell_angle_alpha                114.0304
_cell_angle_beta                 111.7584
_cell_angle_gamma                93.1644
loop_
_atom_site_label
_atom_site_type_symbol
_atom_site_fract_x
_atom_site_fract_y
_atom_site_fract_z
     1  Cl         0.27794600       0.96488500       0.03658600
     2  Cl         0.72205400       0.03511500       0.96341400
     3  O          0.55782000       0.09902150       0.16852000
     4  O          0.44218000       0.90097850       0.83148000
     5  N          0.53492000       0.26458150       0.13102000
     6  N          0.46508000       0.73541850       0.86898000
     7  C          0.67792000       0.30982000       0.18162000
     8  C          0.32208000       0.69018000       0.81838000
     9  H          0.69832100       0.35272000       0.13782100
    10  H          0.30167900       0.64728000       0.86217900
    11  H          0.71432200       0.23732200       0.17002100
    12  H          0.28567800       0.76267800       0.82997900
    13  N          0.74042000       0.39862000       0.31532000
    14  N          0.25958000       0.60138000       0.68468000
    15  C          0.81794000       0.57274000       0.47724000
    16  C          0.18206000       0.42726000       0.52276000
    17  H          0.83963800       0.65654000       0.51774000
    18  H          0.16036200       0.34346000       0.48226000
    19  C          0.82764000       0.48665000       0.51984000
    20  C          0.17236000       0.51335000       0.48016000
    21  H          0.84763800       0.48573500       0.58673900
    22  H          0.15236200       0.51426500       0.41326100
    23  N          0.76372000       0.52122000       0.35012000
    24  N          0.23628000       0.47878000       0.64988000
    25  C          0.77763000       0.37543000       0.41573000
    26  C          0.22237000       0.62457000       0.58427000
    27  H          0.76592800       0.30102700       0.40872700
    28  H          0.23407200       0.69897300       0.59127300
    29  C          0.48692000       0.15442000       0.12192000
    30  C          0.51308000       0.84558000       0.87808000
    31  C          0.33703000       0.10692000       0.04643000
    32  C          0.66297000       0.89308000       0.95357000
    33  H          0.29522700       0.16522700       0.08222700
    34  H          0.70477300       0.83477300       0.91777300
    35  H          0.31233100       0.10342900       0.96546600
    36  H          0.68766900       0.89657100       0.03453400
    37  C          0.44932000       0.33602000       0.08482000
    38  C          0.55068000       0.66398000       0.91518000
    39  C          0.39892000       0.41582000       0.16422000
    40  C          0.60108000       0.58418000       0.83578000
    41  C          0.31943000       0.48452000       0.11723000
    42  C          0.68057000       0.51548000       0.88277000
    43  H          0.28182600       0.53512400       0.16692500
    44  H          0.71817400       0.46487600       0.83307500
    45  C          0.29173000       0.47422000      -0.00133000
    46  C          0.70827000       0.52578000       0.00133000
    47  H          0.23402500       0.51472300       0.96627600
    48  H          0.76597500       0.48527700       0.03372400
    49  C          0.34102000       0.39382000       0.92137000
    50  C          0.65898000       0.60618000       0.07863000
    51  H          0.31702500       0.38542300       0.83457300
    52  H          0.68297500       0.61457700       0.16542700
    53  C          0.42162000       0.32302000       0.96288000
    54  C          0.57838000       0.67698000       0.03712000
    55  C          0.47533000       0.23593000       0.87897000
    56  C          0.52467000       0.76407000       0.12103000
    57  H          0.46263000       0.15463100       0.87147100
    58  H          0.53737000       0.84536900       0.12852900
    59  H          0.56973500       0.26502800       0.90537100
    60  H          0.43026500       0.73497200       0.09462900
    61  H          0.42443200       0.22162900       0.79296500
    62  H          0.57556800       0.77837100       0.20703500
    63  C          0.42634000       0.42593000       0.29343000
    64  C          0.57366000       0.57407000       0.70657000
    65  H          0.38863200       0.47733200       0.33163200
    66  H          0.61136800       0.52266800       0.66836800
    67  H          0.38503600       0.35103700       0.28333400
    68  H          0.61496400       0.64896300       0.71666600
    69  H          0.51104600       0.45463500       0.35744100
    70  H          0.48895400       0.54536500       0.64255900
    71  Cl         0.01469900       0.34778800       0.11831700
    72  Cl        -0.01469900       0.65221200       0.88168300
    73  N          0.84728000       0.12762000       0.74568000
    74  N          0.15272000       0.87238000       0.25432000
    75  O          0.77498000       0.25072000       0.88608000
    76  O          0.22502000       0.74928000       0.11392000
    77  C          0.71797000       0.09433000       0.63777000
    78  C          0.28203000       0.90567000       0.36223000
    79  H          0.73417500       0.10352300       0.57307400
    80  H          0.26582500       0.89647700       0.42692600
    81  H          0.67557600       0.15092300       0.67477700
    82  H          0.32442400       0.84907700       0.32522300
    83  N          0.64368000       0.96948000       0.58638000
    84  N          0.35632000       0.03052000       0.41362000
    85  C          0.57847000       0.77667000       0.46497000
    86  C          0.42153000       0.22333000       0.53503000
    87  H          0.56486700       0.68346600       0.39386600
    88  H          0.43513300       0.31653400       0.60613400
    89  N          0.65358000       0.87808000       0.48688000
    90  N          0.34642000       0.12192000       0.51312000
    91  C          0.52077000       0.80217000       0.54957000
    92  C          0.47923000       0.19783000       0.45043000
    93  H          0.46427000       0.75067200       0.55487200
    94  H          0.53573000       0.24932800       0.44512800
    95  C          0.56367000       0.92567000       0.62567000
    96  C          0.43633000       0.07433000       0.37433000
    97  H          0.54767400      -0.01622600       0.69487200
    98  H          0.45232600       0.01622600       0.30512800
    99  C          0.86418000       0.20982000       0.86428000
   100  C          0.13582000       0.79018000       0.13572000
   101  C          0.00433000       0.24563000       0.96788000
   102  C         -0.00433000       0.75437000       0.03212000
   103  H          0.06102800       0.28632600       0.95317400
   104  H          0.93897200       0.71367400       0.04682600
   105  H          0.02982700       0.17252800       0.97777400
   106  H          0.97017300       0.82747200       0.02222600
   107  C          0.95608000       0.08512000       0.71818000
   108  C          0.04392000       0.91488000       0.28182000
   109  C          0.02272000       0.14932000       0.67928000
   110  C          0.97728000       0.85068000       0.32072000
   111  C          0.12623000       0.10514000       0.65177000
   112  C          0.87377000       0.89486000       0.34823000
   113  H          0.16962700       0.15172400       0.62507500
   114  H          0.83037300       0.84827600       0.37492500
   115  C          0.16113000       0.00474000       0.66457000
   116  C          0.83887000      -0.00474000       0.33543000
   117  H          0.23683600      -0.01393100       0.65696700
   118  H          0.76316400       0.01393100       0.34303300
   119  C          0.09443000       0.94267000       0.70297000
   120  C          0.90557000       0.05733000       0.29703000
   121  H          0.11383100       0.86867100       0.71207100
   122  H          0.88616900       0.13132900       0.28792900
   123  C         -0.01112000       0.98028000       0.73028000
   124  C          0.01112000       0.01972000       0.26972000
   125  C          0.91656000       0.90967000       0.77046000
   126  C          0.08344000       0.09033000       0.22954000
   127  H          0.91636000       0.96096100       0.84855700
   128  H          0.08364000       0.03903900       0.15144300
   129  H          0.94886400       0.83936400       0.76946700
   130  H          0.05113600       0.16063600       0.23053300
   131  H          0.83575200       0.88655900       0.72635500
   132  H          0.16424800       0.11344100       0.27364500
   133  C         -0.01294000       0.26264000       0.66866000
   134  C          0.01294000       0.73736000       0.33134000
   135  H          0.03934500       0.30204200       0.65405700
   136  H          0.96065500       0.69795800       0.34594300
   137  H         -0.00994500       0.32724400       0.74935000
   138  H          0.00994500       0.67275600       0.25065000
   139  H          0.89575600       0.24453500       0.60735800
   140  H          0.10424400       0.75546500       0.39264200
