data_AZIQIM01
_symmetry_space_group_name_H-M    'P1'
_symmetry_Int_Tables_number       1
loop_
_symmetry_equiv_pos_site_id
_symmetry_equiv_pos_as_xyz
1 x,y,z
_cell_length_a                   7.72754
_cell_length_b                   15.29366
_cell_length_c                   23.00068
_cell_angle_alpha                108.9883
_cell_angle_beta                 91.0524
_cell_angle_gamma                99.0664
loop_
_atom_site_label
_atom_site_type_symbol
_atom_site_fract_x
_atom_site_fract_y
_atom_site_fract_z
     1  C          0.82668810       0.42069800       0.15196500
     2  C          0.17331190       0.57930200       0.84803500
     3  H          0.92455000       0.47242500       0.15690900
     4  H          0.07545000       0.52757500       0.84309100
     5  H          0.84211700       0.39178000       0.18355300
     6  H          0.15788300       0.60822000       0.81644700
     7  H          0.71581700       0.44492000       0.15639700
     8  H          0.28418300       0.55508000       0.84360300
     9  C          0.82294820       0.34765800       0.08832500
    10  C          0.17705180       0.65234200       0.91167500
    11  C          0.95591820       0.28519800       0.08211500
    12  C          0.04408180       0.71480200       0.91788500
    13  C          0.12344190       0.32289900       0.11225600
    14  C          0.87655810       0.67710100       0.88774400
    15  H          0.14731600       0.38947000       0.14055000
    16  H          0.85268400       0.61053000       0.85945000
    17  C          0.25547180       0.26994900       0.10998600
    18  C          0.74452820       0.73005100       0.89001400
    19  C          0.22972000       0.18146900       0.06484600
    20  C          0.77028000       0.81853100       0.93515400
    21  H          0.32481500       0.14448000       0.05865000
    22  H          0.67518500       0.85552000       0.94135000
    23  C          0.06370190       0.14135900       0.03638600
    24  C          0.93629810       0.85864100       0.96361400
    25  H          0.03971600       0.07547000       0.00925000
    26  H          0.96028400       0.92453000       0.99075000
    27  C          0.92009810       0.18705800       0.05054500
    28  C          0.07990190       0.81294200       0.94945500
    29  C          0.73770820       0.12884800       0.04278600
    30  C          0.26229180       0.87115200       0.95721400
    31  H          0.71474100       0.08615000      -0.00042800
    32  H          0.28525900       0.91385000       0.00042800
    33  H          0.65000000       0.17128100       0.05065800
    34  H          0.35000000       0.82871900       0.94934200
    35  C          0.71238000       0.06841900       0.08740600
    36  C          0.28762000       0.93158100       0.91259400
    37  H          0.59662200       0.07279400       0.10482400
    38  H          0.40337800       0.92720600       0.89517600
    39  H          0.71256500       0.00173300       0.06325700
    40  H          0.28743500      -0.00173300       0.93674300
    41  C          0.85399810       0.10021900       0.13946600
    42  C          0.14600190       0.89978100       0.86053400
    43  C         -0.00372000       0.05373900       0.13632600
    44  C          0.00372000       0.94626100       0.86367400
    45  H         -0.01161700      -0.01047000       0.10705000
    46  H          0.01161700       0.01047000       0.89295000
    47  C          0.15662000       0.10039900       0.16740600
    48  C          0.84338000       0.89960100       0.83259400
    49  H          0.25951400       0.06928000       0.15835000
    50  H          0.74048600       0.93072000       0.84165000
    51  C          0.17885190       0.19534900       0.20336600
    52  C          0.82114810       0.80465100       0.79663400
    53  C          0.02772000       0.23428900       0.21699600
    54  C          0.97228000       0.76571100       0.78300400
    55  H          0.03751700       0.29887000       0.24615000
    56  H          0.96248300       0.70113000       0.75385000
    57  C          0.86738000       0.18766100       0.18568600
    58  C          0.13262000       0.81233900       0.81431400
    59  H          0.76318500       0.21728000       0.19066000
    60  H          0.23681500       0.78272000       0.80934000
    61  C          0.35689190       0.25723900       0.21474600
    62  C          0.64310810       0.74276100       0.78525400
    63  H          0.44771400       0.22051100       0.21941300
    64  H          0.55228600       0.77948900       0.78058700
    65  H          0.36032000       0.30997100       0.25382700
    66  H          0.63968000       0.69002900       0.74617300
    67  C          0.40217180       0.29842900       0.16022600
    68  C          0.59782820       0.70157100       0.83977400
    69  H          0.42862500       0.36779900       0.17762000
    70  H          0.57137500       0.63220100       0.82238000
    71  H          0.50905900       0.27646800       0.14193500
    72  H          0.49094100       0.72353200       0.85806500
    73  C          0.58060820       0.41058800       0.04904600
    74  C          0.41939180       0.58941200       0.95095400
    75  H          0.50104400       0.39045400       0.01166900
    76  H          0.49895600       0.60954600       0.98833100
    77  H          0.64280400       0.47458700       0.05617700
    78  H          0.35719600       0.52541300       0.94382300
    79  H          0.51259300       0.40923200       0.08437700
    80  H          0.48740700       0.59076800       0.91562300
    81  C          0.71320820       0.34453800       0.04112600
    82  C          0.28679180       0.65546200       0.95887400
    83  C          0.70678820       0.27377800       0.97765500
    84  C          0.29321180       0.72622200       0.02234500
    85  C          0.54279810       0.22384800       0.94957400
    86  C          0.45720190       0.77615200       0.05042600
    87  H          0.43648600       0.23877000       0.96995000
    88  H          0.56351400       0.76123000       0.03005000
    89  C          0.52319810       0.15715800       0.89068400
    90  C          0.47680190       0.84284200       0.10931600
    91  C          0.67478000       0.12805900       0.86617400
    92  C          0.32522000       0.87194100       0.13382600
    93  H          0.66628300       0.08017000       0.82585000
    94  H          0.33371700       0.91983000       0.17415000
    95  C          0.83868000       0.17854900       0.89195400
    96  C          0.16132000       0.82145100       0.10804600
    97  H          0.94578600       0.16418000       0.87095000
    98  H          0.05421400       0.83582000       0.12905000
    99  C          0.85560820       0.25899800       0.94401400
   100  C          0.14439180       0.74100200       0.05598600
   101  C          0.01795180       0.33351900       0.95439400
   102  C         -0.01795180       0.66648100       0.04560600
   103  H          0.12319300       0.30300000       0.94903200
   104  H          0.87680700       0.69700000       0.05096800
   105  H          0.02603600       0.37686400      -0.00258700
   106  H          0.97396400       0.62313600       0.00258700
   107  C          0.01842190       0.39267900       0.90868400
   108  C         -0.01842190       0.60732100       0.09131600
   109  H          0.04237500       0.46040300       0.93311500
   110  H          0.95762500       0.53959700       0.06688500
   111  H          0.11480700       0.37941200       0.88108500
   112  H          0.88519300       0.62058800       0.11891500
   113  C          0.84737810       0.37102800       0.86993400
   114  C          0.15262190       0.62897200       0.13006600
   115  C          0.81878000       0.29951900       0.81262400
   116  C          0.18122000       0.70048100       0.18737600
   117  H          0.92008600       0.27728000       0.79285000
   118  H          0.07991400       0.72272000       0.20715000
   119  C          0.65048000       0.25279900       0.78998400
   120  C          0.34952000       0.74720100       0.21001600
   121  H          0.63028300       0.19677000       0.75235000
   122  H          0.36971700       0.80323000       0.24765000
   123  C          0.50631810       0.27541800       0.82274400
   124  C          0.49368190       0.72458200       0.17725600
   125  C          0.53278000       0.35956900       0.87253400
   126  C          0.46722000       0.64043100       0.12746600
   127  H          0.42848500       0.37738000       0.89355000
   128  H          0.57151500       0.62262000       0.10645000
   129  C          0.70078000       0.40653900       0.89512400
   130  C          0.29922000       0.59346100       0.10487600
   131  H          0.71578400       0.46087000       0.93435000
   132  H          0.28421600       0.53913000       0.06565000
   133  C          0.33924810       0.20480800       0.81474400
   134  C          0.66075190       0.79519200       0.18525600
   135  H          0.31148900       0.16918600       0.77031700
   136  H          0.68851100       0.83081400       0.22968300
   137  H          0.24117100       0.23873000       0.82978500
   138  H          0.75882900       0.76127000       0.17021500
   139  C          0.35388000       0.13320900       0.85074400
   140  C          0.64612000       0.86679100       0.14925600
   141  H          0.25376700       0.13280000       0.87696400
   142  H          0.74623300       0.86720000       0.12303600
   143  H          0.34521300       0.06923100       0.82051700
   144  H          0.65478700       0.93076900       0.17948300
   145  C          0.46960180       0.63050800       0.54348600
   146  C          0.53039820       0.36949200       0.45651400
   147  H          0.58042300       0.67175400       0.56262100
   148  H          0.41957700       0.32824600       0.43737900
   149  H          0.48947200       0.58772600       0.50295600
   150  H          0.51052800       0.41227400       0.49704400
   151  H          0.42545300       0.59397400       0.56974500
   152  H          0.57454700       0.40602600       0.43025500
   153  C          0.33555180       0.68941800       0.53592600
   154  C          0.66444820       0.31058200       0.46407400
   155  C          0.30792180       0.69377800       0.47243600
   156  C          0.69207820       0.30622200       0.52756400
   157  C          0.45451190       0.70611800       0.43931600
   158  C          0.54548810       0.29388200       0.56068400
   159  H          0.57131400       0.70718000       0.45615000
   160  H          0.42868600       0.29282000       0.54385000
   161  C          0.43956190       0.71001800       0.37957600
   162  C          0.56043810       0.28998200       0.62042400
   163  C          0.27732000       0.72121800       0.35913600
   164  C          0.72268000       0.27878200       0.64086400
   165  H          0.26291700       0.73068000       0.31945000
   166  H          0.73708300       0.26932000       0.68055000
   167  C          0.13002000       0.70566900       0.39033600
   168  C          0.86998000       0.29433100       0.60966400
   169  H          0.01461400       0.70218000       0.37065000
   170  H         -0.01461400       0.29782000       0.62935000
   171  C          0.14004180       0.67966800       0.44274500
   172  C          0.85995820       0.32033200       0.55725500
   173  C         -0.02148190       0.62371800       0.45811600
   174  C          0.02148190       0.37628200       0.54188400
   175  H          0.87834700       0.65725500       0.45928200
   176  H          0.12165300       0.34274500       0.54071800
   177  H         -0.00007600       0.61980800       0.49969400
   178  H          0.00007600       0.38019200       0.50030600
   179  C          0.92738000       0.52069900       0.41014600
   180  C          0.07262000       0.47930100       0.58985400
   181  H          0.90825100       0.47554500       0.43294600
   182  H          0.09174900       0.52445500       0.56705400
   183  H          0.81539700       0.51578400       0.38677100
   184  H          0.18460300       0.48421600       0.61322900
   185  C          0.06592000       0.49382800       0.36516600
   186  C          0.93408000       0.50617200       0.63483400
   187  C          0.05232000       0.50263900       0.30676600
   188  C          0.94768000       0.49736100       0.69323400
   189  H          0.93578600       0.50838000       0.29175000
   190  H          0.06421400       0.49162000       0.70825000
   191  C          0.20222000       0.51743900       0.27654600
   192  C          0.79778000       0.48256100       0.72345400
   193  H          0.19521800       0.53338000       0.23965000
   194  H          0.80478200       0.46662000       0.76035000
   195  C          0.36772000       0.52373800       0.30318600
   196  C          0.63228000       0.47626200       0.69681400
   197  C          0.37512000       0.49395900       0.35454600
   198  C          0.62488000       0.50604100       0.64545400
   199  H          0.49241400       0.49328000       0.37235000
   200  H          0.50758600       0.50672000       0.62765000
   201  C          0.22642000       0.47923800       0.38483600
   202  C          0.77358000       0.52076200       0.61516400
   203  H          0.23811600       0.46787000       0.42395000
   204  H          0.76188400       0.53213000       0.57605000
   205  C          0.52842000       0.57917900       0.28742600
   206  C          0.47158000       0.42082100       0.71257400
   207  H          0.50699800       0.58221800       0.24561100
   208  H          0.49300200       0.41778200       0.75438900
   209  H          0.62897600       0.54600700       0.28667300
   210  H          0.37102400       0.45399300       0.71332700
   211  C          0.57850190       0.68292900       0.33494600
   212  C          0.42149810       0.31707100       0.66505400
   213  H          0.69048100       0.68853000       0.35855100
   214  H          0.30951900       0.31147000       0.64144900
   215  H          0.59737500       0.72751100       0.31171800
   216  H          0.40262500       0.27248900       0.68828200
   217  C          0.27731190       0.72984800       0.64781500
   218  C          0.72268810       0.27015200       0.35218500
   219  H          0.18132900       0.68407900       0.65372800
   220  H          0.81867100       0.31592100       0.34627200
   221  H          0.27745600       0.79136100       0.67900800
   222  H          0.72254400       0.20863900       0.32099200
   223  H          0.38968100       0.70953000       0.65190700
   224  H          0.61031900       0.29047000       0.34809300
   225  C          0.25169180       0.73688800       0.58401600
   226  C          0.74830820       0.26311200       0.41598400
   227  C          0.12086180       0.79600800       0.57755500
   228  C          0.87913820       0.20399200       0.42244500
   229  C          0.96353810       0.79058800       0.60644600
   230  C          0.03646190       0.20941200       0.39355400
   231  H          0.94768400       0.75307000       0.63405000
   232  H          0.05231600       0.24693000       0.36595000
   233  C          0.83605820       0.84406800       0.60285600
   234  C          0.16394180       0.15593200       0.39714400
   235  C          0.85258000       0.88858900       0.55865600
   236  C          0.14742000       0.11141100       0.44134400
   237  H          0.75888500       0.92097000       0.55125000
   238  H          0.24111500       0.07903000       0.44875000
   239  C          0.00952000       0.89753900       0.53173600
   240  C         -0.00952000       0.10246100       0.46826400
   241  H          0.03101700       0.93747000       0.50595000
   242  H          0.96898300       0.06253000       0.49405000
   243  C          0.15279180       0.86238800       0.54661500
   244  C          0.84720820       0.13761200       0.45338500
   245  C          0.33510180       0.90884800       0.53895600
   246  C          0.66489820       0.09115200       0.46104400
   247  H          0.34167400       0.90807800       0.49584600
   248  H          0.65832600       0.09192200       0.50415400
   249  H          0.42207900       0.87208200       0.54673600
   250  H          0.57792100       0.12791800       0.45326400
   251  C          0.38532000       0.01442800       0.58429600
   252  C          0.61468000       0.98557200       0.41570400
   253  H          0.50608700       0.02440900       0.60317700
   254  H          0.49391300       0.97559100       0.39682300
   255  H          0.38442300       0.05741200       0.56013100
   256  H          0.61557700       0.94258800       0.43986900
   257  C          0.26094190       0.03865800       0.63491600
   258  C          0.73905810       0.96134200       0.36508400
   259  C          0.13142000       0.09078900       0.63232600
   260  C          0.86858000       0.90921100       0.36767400
   261  H          0.14121700       0.12897000       0.60575000
   262  H          0.85878300       0.87103000       0.39425000
   263  C          0.97698000       0.08034900       0.66125600
   264  C          0.02302000       0.91965100       0.33874400
   265  H          0.88018400       0.10968000       0.65296000
   266  H          0.11981600       0.89032000       0.34704000
   267  C          0.94878000       0.01692900       0.69353600
   268  C          0.05122000       0.98307100       0.30646400
   269  C          0.09412000       0.98152900       0.70715600
   270  C          0.90588000       0.01847100       0.29284400
   271  H          0.08241600       0.94147000       0.73305000
   272  H          0.91758400       0.05853000       0.26695000
   273  C          0.24762000      -0.00782100       0.67836600
   274  C          0.75238000       0.00782100       0.32163400
   275  H          0.34481500       0.96067000       0.68395000
   276  H          0.65518500       0.03933000       0.31605000
   277  C          0.76626810       0.97204900       0.70080600
   278  C          0.23373190       0.02795100       0.29919400
   279  H          0.68195300       0.01191900       0.69563700
   280  H          0.31804700      -0.01191900       0.30436300
   281  H          0.76070200       0.96902700       0.74308300
   282  H          0.23929800       0.03097300       0.25691700
   283  C          0.70868820       0.86902800       0.65252600
   284  C          0.29131180       0.13097200       0.34747400
   285  H          0.69970800       0.82310600       0.67479100
   286  H          0.30029200       0.17689400       0.32520900
   287  H          0.59086700       0.86406600       0.63286100
   288  H          0.40913300       0.13593400       0.36713900
