data_AZIQIM02
_symmetry_space_group_name_H-M    'P1'
_symmetry_Int_Tables_number       1
loop_
_symmetry_equiv_pos_site_id
_symmetry_equiv_pos_as_xyz
1 x,y,z
_cell_length_a                   15.17591
_cell_length_b                   7.56874
_cell_length_c                   22.594912
_cell_angle_alpha                90.0
_cell_angle_beta                 91.0566
_cell_angle_gamma                90.0
loop_
_atom_site_label
_atom_site_type_symbol
_atom_site_fract_x
_atom_site_fract_y
_atom_site_fract_z
     1  C          0.44423100       0.78742000       0.49354700
     2  C          0.05576900       0.28742000       0.00645300
     3  C          0.55576900       0.21258000       0.50645300
     4  C          0.94423100       0.71258000       0.99354700
     5  H          0.48741500       0.70253000       0.47887100
     6  H          0.01258500       0.20253000       0.02112900
     7  H          0.51258500       0.29747000       0.52112900
     8  H          0.98741500       0.79747000       0.97887100
     9  H          0.45530200       0.80863100       0.53581700
    10  H          0.04469800       0.30863100       0.96418300
    11  H          0.54469800       0.19136900       0.46418300
    12  H          0.95530200       0.69136900       0.03581700
    13  H          0.44951600       0.89886500       0.47180900
    14  H          0.05048400       0.39886500       0.02819100
    15  H          0.55048400       0.10113500       0.52819100
    16  H          0.94951600       0.60113500       0.97180900
    17  C          0.35238900       0.71381170       0.48450600
    18  C          0.14761100       0.21381170       0.01549400
    19  C          0.64761100       0.28618830       0.51549400
    20  C          0.85238900       0.78618830       0.98450600
    21  C          0.29214900       0.70594170       0.53635600
    22  C          0.20785100       0.20594170       0.96364400
    23  C          0.70785100       0.29405830       0.46364400
    24  C          0.79214900       0.79405830       0.03635600
    25  C          0.21512100       0.80735180       0.53391600
    26  C          0.28487900       0.30735180       0.96608400
    27  C          0.78487900       0.19264820       0.46608400
    28  C          0.71512100       0.69264820       0.03391600
    29  H          0.20431300       0.88820000       0.49937000
    30  H          0.29568700       0.38820000       0.00063000
    31  H          0.79568700       0.11180000       0.50063000
    32  H          0.70431300       0.61180000      -0.00063000
    33  C          0.15489100       0.81052000       0.57984600
    34  C          0.34510900       0.31052000       0.92015400
    35  C          0.84510900       0.18948000       0.42015400
    36  C          0.65489100       0.68948000       0.07984600
    37  C          0.16398100       0.67972000       0.62301600
    38  C          0.33601900       0.17972000       0.87698400
    39  C          0.83601900       0.32028000       0.37698400
    40  C          0.66398100       0.82028000       0.12301600
    41  H          0.11911100       0.67120000       0.65517000
    42  H          0.38088900       0.17120000       0.84483000
    43  H          0.88088900       0.32880000       0.34483000
    44  H          0.61911100       0.82880000       0.15517000
    45  C          0.24100110       0.58261180       0.62727600
    46  C          0.25899890       0.08261180       0.87272400
    47  C          0.75899890       0.41738820       0.37272400
    48  C          0.74100110       0.91738820       0.12727600
    49  H          0.25311200       0.50520000       0.66267000
    50  H          0.24688800       0.00520000       0.83733000
    51  H          0.74688800       0.49480000       0.33733000
    52  H          0.75311200      -0.00520000       0.16267000
    53  C          0.31087100       0.61052180       0.58880600
    54  C          0.18912900       0.11052180       0.91119400
    55  C          0.68912900       0.38947820       0.41119400
    56  C          0.81087100       0.88947820       0.08880600
    57  C          0.40227110       0.56262000       0.61169700
    58  C          0.09772890       0.06262000       0.88830300
    59  C          0.59772890       0.43738000       0.38830300
    60  C          0.90227110       0.93738000       0.11169700
    61  H          0.44097400       0.54168200       0.57760000
    62  H          0.05902600       0.04168200       0.92240000
    63  H          0.55902600       0.45831800       0.42240000
    64  H          0.94097400       0.95831800       0.07760000
    65  H          0.39887800       0.45111300       0.63445400
    66  H          0.10112200       0.95111300       0.86554600
    67  H          0.60112200       0.54888700       0.36554600
    68  H          0.89887800       0.04888700       0.13445400
    69  C          0.44544110       0.71252000       0.65307700
    70  C          0.05455890       0.21252000       0.84692300
    71  C          0.55455890       0.28748000       0.34692300
    72  C          0.94544110       0.78748000       0.15307700
    73  H          0.46587400       0.65800500       0.69070700
    74  H          0.03412600       0.15800500       0.80929300
    75  H          0.53412600       0.34199500       0.30929300
    76  H          0.96587400       0.84199500       0.19070700
    77  H          0.49766200       0.76166900       0.63324400
    78  H          0.00233800       0.26166900       0.86675600
    79  H          0.50233800       0.23833100       0.36675600
    80  H         -0.00233800       0.73833100       0.13324400
    81  C          0.38283100       0.86159190       0.66675600
    82  C          0.11716900       0.36159190       0.83324400
    83  C          0.61716900       0.13840810       0.33324400
    84  C          0.88283100       0.63840810       0.16675600
    85  C          0.32155110       0.84663190       0.71177600
    86  C          0.17844890       0.34663190       0.78822400
    87  C          0.67844890       0.15336810       0.28822400
    88  C          0.82155110       0.65336810       0.21177600
    89  H          0.33351300       0.75520000       0.74267000
    90  H          0.16648700       0.25520000       0.75733000
    91  H          0.66648700       0.24480000       0.25733000
    92  H          0.83351300       0.74480000       0.24267000
    93  C          0.24255110       0.93912000       0.70887700
    94  C          0.25744890       0.43912000       0.79112300
    95  C          0.75744890       0.06088000       0.29112300
    96  C          0.74255110       0.56088000       0.20887700
    97  H          0.19361100       0.90920000       0.73718000
    98  H          0.30638900       0.40920000       0.76282000
    99  H          0.80638900       0.09080000       0.26282000
   100  H          0.69361100       0.59080000       0.23718000
   101  C          0.22296110       0.05122000       0.66140700
   102  C          0.27703890       0.55122000       0.83859300
   103  C          0.77703890       0.94878000       0.33859300
   104  C          0.72296110       0.44878000       0.16140700
   105  C          0.29292110       0.09730190       0.62514700
   106  C          0.20707890       0.59730190       0.87485300
   107  C          0.70707890       0.90269810       0.37485300
   108  C          0.79292110       0.40269810       0.12514700
   109  H          0.28321400       0.18520000       0.59307000
   110  H          0.21678600       0.68520000       0.90693000
   111  H          0.71678600       0.81480000       0.40693000
   112  H          0.78321400       0.31480000       0.09307000
   113  C          0.37154110       0.00346190       0.62775600
   114  C          0.12845890       0.50346190       0.87224400
   115  C          0.62845890      -0.00346190       0.37224400
   116  C          0.87154110       0.49653810       0.12775600
   117  H          0.41891100       0.02820000       0.59807000
   118  H          0.08108900       0.52820000       0.90193000
   119  H          0.58108900       0.97180000       0.40193000
   120  H          0.91891100       0.47180000       0.09807000
   121  C          0.12895120       0.08912000       0.64252800
   122  C          0.37104880       0.58912000       0.85747200
   123  C          0.87104880       0.91088000       0.35747200
   124  C          0.62895120       0.41088000       0.14252800
   125  H          0.12406600       0.21459900       0.63051900
   126  H          0.37593400       0.71459900       0.86948100
   127  H          0.87593400       0.78540100       0.36948100
   128  H          0.62406600       0.28540100       0.13051900
   129  H          0.09015600       0.07083100       0.67672800
   130  H          0.40984400       0.57083100       0.82327200
   131  H          0.90984400       0.92916900       0.32327200
   132  H          0.59015600       0.42916900       0.17672800
   133  C          0.09565110       0.96792000       0.58925700
   134  C          0.40434890       0.46792000       0.91074300
   135  C          0.90434890       0.03208000       0.41074300
   136  C          0.59565110       0.53208000       0.08925700
   137  H          0.03529600       0.92587200       0.59736800
   138  H          0.46470400       0.42587200       0.90263200
   139  H          0.96470400       0.07412800       0.40263200
   140  H          0.53529600       0.57412800       0.09736800
   141  H          0.09297200       0.03922500       0.55252900
   142  H          0.40702800       0.53922500       0.94747100
   143  H          0.90702800       0.96077500       0.44747100
   144  H          0.59297200       0.46077500       0.05252900
   145  C          0.38061100       0.70942000       0.37652600
   146  C          0.11938900       0.20942000       0.12347400
   147  C          0.61938900       0.29058000       0.62347400
   148  C          0.88061100       0.79058000       0.87652600
   149  H          0.39643200       0.83492600       0.37593700
   150  H          0.10356800       0.33492600       0.12406300
   151  H          0.60356800       0.16507400       0.62406300
   152  H          0.89643200       0.66507400       0.87593700
   153  H          0.34814600       0.67934000       0.34000000
   154  H          0.15185400       0.17934000       0.16000000
   155  H          0.65185400       0.32066000       0.66000000
   156  H          0.84814600       0.82066000       0.84000000
   157  H          0.43431800       0.63780900       0.37946200
   158  H          0.06568200       0.13780900       0.12053800
   159  H          0.56568200       0.36219100       0.62053800
   160  H          0.93431800       0.86219100       0.87946200
   161  C          0.32321100       0.67248170       0.42942600
   162  C          0.17678900       0.17248170       0.07057400
   163  C          0.67678900       0.32751830       0.57057400
   164  C          0.82321100       0.82751830       0.92942600
   165  C          0.23255900       0.60310170       0.41750600
   166  C          0.26744100       0.10310170       0.08249400
   167  C          0.76744100       0.39689830       0.58249400
   168  C          0.73255900       0.89689830       0.91750600
   169  C          0.18126100       0.67520180       0.37155600
   170  C          0.31873900       0.17520180       0.12844400
   171  C          0.81873900       0.32479820       0.62844400
   172  C          0.68126100       0.82479820       0.87155600
   173  H          0.21061100       0.76220000       0.34517000
   174  H          0.28938900       0.26220000       0.15483000
   175  H          0.78938900       0.23780000       0.65483000
   176  H          0.71061100       0.73780000       0.84517000
   177  C          0.09551100       0.61873190       0.35880600
   178  C          0.40448900       0.11873190       0.14119400
   179  C          0.90448900       0.38126810       0.64119400
   180  C          0.59551100       0.88126810       0.85880600
   181  C          0.05554100       0.51212000       0.40074700
   182  C          0.44445900       0.01212000       0.09925300
   183  C          0.94445900       0.48788000       0.59925300
   184  C          0.55554100      -0.01212000       0.90074700
   185  H         -0.00799000       0.48020000       0.39638000
   186  H          0.50799000       0.98020000       0.10362000
   187  H          0.00799000       0.51980000       0.60362000
   188  H          0.49201000       0.01980000       0.89638000
   189  C          0.10736110       0.43041190       0.44435600
   190  C          0.39263890       0.93041190       0.05564400
   191  C          0.89263890       0.56958810       0.55564400
   192  C          0.60736110       0.06958810       0.94435600
   193  H          0.08051200       0.33820000       0.47048000
   194  H          0.41948800       0.83820000       0.02952000
   195  H          0.91948800       0.66180000       0.52952000
   196  H          0.58051200       0.16180000       0.97048000
   197  C          0.19795100       0.45770180       0.44871600
   198  C          0.30204900       0.95770180       0.05128400
   199  C          0.80204900       0.54229820       0.55128400
   200  C          0.69795100       0.04229820       0.94871600
   201  C          0.25538110       0.31263180       0.47450600
   202  C          0.24461890       0.81263180       0.02549400
   203  C          0.74461890       0.68736820       0.52549400
   204  C          0.75538110       0.18736820       0.97450600
   205  H          0.21879400       0.23444500       0.49915300
   206  H          0.28120600       0.73444500       0.00084700
   207  H          0.78120600       0.76555500       0.50084700
   208  H          0.71879400       0.26555500      -0.00084700
   209  H          0.30122200       0.36621200       0.50056600
   210  H          0.19877800       0.86621200      -0.00056600
   211  H          0.69877800       0.63378800       0.49943400
   212  H          0.80122200       0.13378800       0.00056600
   213  C          0.30163110       0.19772000       0.42550700
   214  C          0.19836890       0.69772000       0.07449300
   215  C          0.69836890       0.80228000       0.57449300
   216  C          0.80163110       0.30228000       0.92550700
   217  H          0.36296600       0.23937000       0.42095900
   218  H          0.13703400       0.73937000       0.07904100
   219  H          0.63703400       0.76063000       0.57904100
   220  H          0.86296600       0.26063000       0.92095900
   221  H          0.30396600       0.07301100       0.43869100
   222  H          0.19603400       0.57301100       0.06130900
   223  H          0.69603400       0.92698900       0.56130900
   224  H          0.80396600       0.42698900       0.93869100
   225  C          0.25387100       0.20746180       0.36598600
   226  C          0.24612900       0.70746180       0.13401400
   227  C          0.74612900       0.79253820       0.63401400
   228  C          0.75387100       0.29253820       0.86598600
   229  C          0.16883110       0.14048180       0.35804700
   230  C          0.33116890       0.64048180       0.14195300
   231  C          0.83116890       0.85951820       0.64195300
   232  C          0.66883110       0.35951820       0.85804700
   233  H          0.14791200       0.05120000       0.38747000
   234  H          0.35208800       0.55120000       0.11253000
   235  H          0.85208800       0.94880000       0.61253000
   236  H          0.64791200       0.44880000       0.88747000
   237  C          0.11270100       0.21147190       0.31507700
   238  C          0.38729900       0.71147190       0.18492300
   239  C          0.88729900       0.78852810       0.68492300
   240  C          0.61270100       0.28852810       0.81507700
   241  H          0.04889000       0.17920000       0.31488000
   242  H          0.45111000       0.67920000       0.18512000
   243  H          0.95111000       0.82080000       0.68512000
   244  H          0.54889000       0.32080000       0.81488000
   245  C          0.13948110       0.35190190       0.27951600
   246  C          0.36051890       0.85190190       0.22048400
   247  C          0.86051890       0.64809810       0.72048400
   248  C          0.63948110       0.14809810       0.77951600
   249  C          0.22932100       0.38961190       0.27883600
   250  C          0.27067900       0.88961190       0.22116400
   251  C          0.77067900       0.61038810       0.72116400
   252  C          0.72932100       0.11038810       0.77883600
   253  H          0.25261300       0.48120000       0.25138000
   254  H          0.24738700       0.98120000       0.24862000
   255  H          0.74738700       0.51880000       0.74862000
   256  H          0.75261300       0.01880000       0.75138000
   257  C          0.28570100       0.31742180       0.32159600
   258  C          0.21429900       0.81742180       0.17840400
   259  C          0.71429900       0.68257820       0.67840400
   260  C          0.78570100       0.18257820       0.82159600
   261  H          0.34779000       0.35720000       0.32468000
   262  H          0.15221000       0.85720000       0.17532000
   263  H          0.65221000       0.64280000       0.67532000
   264  H          0.84779000       0.14280000       0.82468000
   265  C          0.07274110       0.48012000       0.25421700
   266  C          0.42725890       0.98012000       0.24578300
   267  C          0.92725890       0.51988000       0.74578300
   268  C          0.57274110       0.01988000       0.75421700
   269  H          0.01633600       0.41735100       0.24688900
   270  H          0.48366400       0.91735100       0.25311100
   271  H          0.98366400       0.58264900       0.75311100
   272  H          0.51633600       0.08264900       0.74688900
   273  H          0.09366200       0.52456400       0.21573900
   274  H          0.40633800       0.02456400       0.28426100
   275  H          0.90633800       0.47543600       0.78426100
   276  H          0.59366200       0.97543600       0.71573900
   277  C          0.05614110       0.64352000       0.29723700
   278  C          0.44385890       0.14352000       0.20276300
   279  C          0.94385890       0.35648000       0.70276300
   280  C          0.55614110       0.85648000       0.79723700
   281  H          0.08168000       0.75110900       0.27946400
   282  H          0.41832000       0.25110900       0.22053600
   283  H          0.91832000       0.24889100       0.72053600
   284  H          0.58168000       0.74889100       0.77946400
   285  H         -0.00814500       0.66245000       0.30042000
   286  H          0.50814500       0.16245000       0.19958000
   287  H          0.00814500       0.33755000       0.69958000
   288  H          0.49185500       0.83755000       0.80042000
