data_AZIQIM
_symmetry_space_group_name_H-M    'P1'
_symmetry_Int_Tables_number       1
loop_
_symmetry_equiv_pos_site_id
_symmetry_equiv_pos_as_xyz
1 x,y,z
_cell_length_a                   29.60508
_cell_length_b                   7.42912
_cell_length_c                   11.54423
_cell_angle_alpha                90.0
_cell_angle_beta                 90.0
_cell_angle_gamma                90.0
loop_
_atom_site_label
_atom_site_type_symbol
_atom_site_fract_x
_atom_site_fract_y
_atom_site_fract_z
     1  C          0.08476600       0.74333000       0.22574160
     2  C          0.91523400       0.25667000       0.72574160
     3  C          0.58476600       0.75667000       0.22574160
     4  C          0.41523400       0.24333000       0.72574160
     5  H          0.05822800       0.82073000       0.23534800
     6  H          0.94177200       0.17927000       0.73534800
     7  H          0.55822800       0.67927000       0.23534800
     8  H          0.44177200       0.32073000       0.73534800
     9  H          0.07598400       0.63286000       0.18508100
    10  H          0.92401600       0.36714000       0.68508100
    11  H          0.57598400       0.86714000       0.18508100
    12  H          0.42401600       0.13286000       0.68508100
    13  H          0.10775500       0.80699500       0.18051400
    14  H          0.89224500       0.19300500       0.68051400
    15  H          0.60775500       0.69300500       0.18051400
    16  H          0.39224500       0.30699500       0.68051400
    17  C          0.10371500       0.69582000       0.34326150
    18  C          0.89628500       0.30418000       0.84326150
    19  C          0.60371500       0.80418000       0.34326150
    20  C          0.39628500       0.19582000       0.84326150
    21  C          0.14766500       0.59472000       0.34329140
    22  C          0.85233500       0.40528000       0.84329140
    23  C          0.64766500       0.90528000       0.34329140
    24  C          0.35233500       0.09472000       0.84329140
    25  C          0.18739500       0.69842000       0.34522150
    26  C          0.81260500       0.30158000       0.84522150
    27  C          0.68739500       0.80158000       0.34522150
    28  C          0.31260500       0.19842000       0.84522150
    29  H          0.18546000       0.83111900       0.34271700
    30  H          0.81454000       0.16888100       0.84271700
    31  H          0.68546000       0.66888100       0.34271700
    32  H          0.31454000       0.33111900       0.84271700
    33  C          0.23026500       0.62152000       0.33961150
    34  C          0.76973500       0.37848000       0.83961150
    35  C          0.73026500       0.87848000       0.33961150
    36  C          0.26973500       0.12152000       0.83961150
    37  C          0.23303600       0.43762000       0.36018150
    38  C          0.76696400       0.56238000       0.86018150
    39  C          0.73303600       0.06238000       0.36018150
    40  C          0.26696400       0.93762000       0.86018150
    41  H          0.26215000       0.38020000       0.36701700
    42  H          0.73785000       0.61980000       0.86701700
    43  H          0.76215000       0.11980000       0.36701700
    44  H          0.23785000       0.88020000       0.86701700
    45  C          0.19454600       0.33272000       0.35506150
    46  C          0.80545400       0.66728000       0.85506150
    47  C          0.69454600       0.16728000       0.35506150
    48  C          0.30545400       0.83272000       0.85506150
    49  H          0.19706000       0.20161900       0.35291700
    50  H          0.80294000       0.79838100       0.85291700
    51  H          0.69706000       0.29838100       0.35291700
    52  H          0.30294000       0.70161900       0.85291700
    53  C          0.15210500       0.40662000       0.33100140
    54  C          0.84789500       0.59338000       0.83100140
    55  C          0.65210500       0.09338000       0.33100140
    56  C          0.34789500       0.90662000       0.83100140
    57  C          0.11697600       0.28713000       0.27453160
    58  C          0.88302400       0.71287000       0.77453160
    59  C          0.61697600       0.21287000       0.27453160
    60  C          0.38302400       0.78713000       0.77453160
    61  H          0.08730800       0.34849000       0.27730000
    62  H          0.91269200       0.65151000       0.77730000
    63  H          0.58730800       0.15151000       0.27730000
    64  H          0.41269200       0.84849000       0.77730000
    65  H          0.11438100       0.17404900       0.31943200
    66  H          0.88561900       0.82595100       0.81943200
    67  H          0.61438100       0.32595100       0.31943200
    68  H          0.38561900       0.67404900       0.81943200
    69  C          0.12859700       0.23923000       0.14329190
    70  C          0.87140300       0.76077000       0.64329190
    71  C          0.62859700       0.26077000       0.14329190
    72  C          0.37140300       0.73923000       0.64329190
    73  H          0.13343900       0.10775100       0.13681300
    74  H          0.86656100       0.89224900       0.63681300
    75  H          0.63343900       0.39224900       0.13681300
    76  H          0.36656100       0.60775100       0.63681300
    77  H          0.10238200       0.27082600       0.09407700
    78  H          0.89761800       0.72917400       0.59407700
    79  H          0.60238200       0.22917400       0.09407700
    80  H          0.39761800       0.77082600       0.59407700
    81  C          0.17011600       0.33593000       0.09766160
    82  C          0.82988400       0.66407000       0.59766160
    83  C          0.67011600       0.16407000       0.09766160
    84  C          0.32988400       0.83593000       0.59766160
    85  C          0.21284700       0.25843000       0.10006170
    86  C          0.78715300       0.74157000       0.60006170
    87  C          0.71284700       0.24157000       0.10006170
    88  C          0.28715300       0.75843000       0.60006170
    89  H          0.21657000       0.12620000       0.11220000
    90  H          0.78343000       0.87380000       0.61220000
    91  H          0.71657000       0.37380000       0.11220000
    92  H          0.28343000       0.62620000       0.61220000
    93  C          0.25127600       0.36653000       0.10448150
    94  C          0.74872400       0.63347000       0.60448150
    95  C          0.75127600       0.13347000       0.10448150
    96  C          0.24872400       0.86653000       0.60448150
    97  H          0.28066000       0.31330000       0.11420000
    98  H          0.71934000       0.68670000       0.61420000
    99  H          0.78066000       0.18670000       0.11420000
   100  H          0.21934000       0.81330000       0.61420000
   101  C          0.24740600       0.55273000       0.10711150
   102  C          0.75259400       0.44727000       0.60711150
   103  C          0.74740600       0.94727000       0.10711150
   104  C          0.25259400       0.05273000       0.60711150
   105  C          0.20559600       0.62593000       0.07760150
   106  C          0.79440400       0.37407000       0.57760150
   107  C          0.70559600       0.87407000       0.07760150
   108  C          0.29440400       0.12593000       0.57760150
   109  H          0.20256000       0.75420000       0.07271800
   110  H          0.79744000       0.24580000       0.57271800
   111  H          0.70256000       0.74580000       0.07271800
   112  H          0.29744000       0.25420000       0.57271800
   113  C          0.16759600       0.51773000       0.07234150
   114  C          0.83240400       0.48227000       0.57234150
   115  C          0.66759600      -0.01773000       0.07234150
   116  C          0.33240400       0.01773000       0.57234150
   117  H          0.13856000       0.58020000       0.06041900
   118  H          0.86144000       0.41980000       0.56041900
   119  H          0.63856000       0.91980000       0.06041900
   120  H          0.36144000       0.08020000       0.56041900
   121  C          0.28283600       0.67083000       0.16302160
   122  C          0.71716400       0.32917000       0.66302160
   123  C          0.78283600       0.82917000       0.16302160
   124  C          0.21716400       0.17083000       0.66302160
   125  H          0.28638500       0.78192700       0.11653900
   126  H          0.71361500       0.21807300       0.61653900
   127  H          0.78638500       0.71807300       0.11653900
   128  H          0.21361500       0.28192700       0.61653900
   129  H          0.31213900       0.60664800       0.16258600
   130  H          0.68786100       0.39335200       0.66258600
   131  H          0.81213900       0.89335200       0.16258600
   132  H          0.18786100       0.10664800       0.66258600
   133  C          0.27050600       0.72433000       0.29265160
   134  C          0.72949400       0.27567000       0.79265160
   135  C          0.77050600       0.77567000       0.29265160
   136  C          0.22949400       0.22433000       0.79265160
   137  H          0.29698400       0.70103100       0.34283900
   138  H          0.70301600       0.29896900       0.84283900
   139  H          0.79698400       0.79896900       0.34283900
   140  H          0.20301600       0.20103100       0.84283900
   141  H          0.26390800       0.85484600       0.29587700
   142  H          0.73609200       0.14515400       0.79587700
   143  H          0.76390800       0.64515400       0.29587700
   144  H          0.23609200       0.35484600       0.79587700
   145  C          0.04380600       0.87782000       0.44149160
   146  C          0.95619400       0.12218000       0.94149160
   147  C          0.54380600       0.62218000       0.44149160
   148  C          0.45619400       0.37782000       0.94149160
   149  H          0.05101000      -0.01105200       0.39968600
   150  H          0.94899000       0.01105200       0.89968600
   151  H          0.55101000       0.51105200       0.39968600
   152  H          0.44899000       0.48894800       0.89968600
   153  H          0.03538600       0.90686300       0.52142900
   154  H          0.96461400       0.09313700       0.02142900
   155  H          0.53538600       0.59313700       0.52142900
   156  H          0.46461400       0.40686300       0.02142900
   157  H          0.01854000       0.81681100       0.40313900
   158  H          0.98146000       0.18318900       0.90313900
   159  H          0.51854000       0.68318900       0.40313900
   160  H          0.48146000       0.31681100       0.90313900
   161  C          0.08487500       0.75482000       0.44180150
   162  C          0.91512500       0.24518000       0.94180150
   163  C          0.58487500       0.74518000       0.44180150
   164  C          0.41512500       0.25482000       0.94180150
   165  C          0.10362500       0.70872000       0.55857140
   166  C          0.89637500       0.29128000       0.05857140
   167  C          0.60362500       0.79128000       0.55857140
   168  C          0.39637500       0.20872000       0.05857140
   169  C          0.11216500       0.84682000       0.63768140
   170  C          0.88783500       0.15318000       0.13768140
   171  C          0.61216500       0.65318000       0.63768140
   172  C          0.38783500       0.34682000       0.13768140
   173  H          0.10770400       0.96790000       0.61384300
   174  H          0.89229600       0.03210000       0.11384300
   175  H          0.60770400       0.53210000       0.61384300
   176  H          0.39229600       0.46790000       0.11384300
   177  C          0.12699500       0.81362000       0.75050150
   178  C          0.87300500       0.18638000       0.25050150
   179  C          0.62699500       0.68638000       0.75050150
   180  C          0.37300500       0.31362000       0.25050150
   181  C          0.14241500       0.64032000       0.77418150
   182  C          0.85758500       0.35968000       0.27418150
   183  C          0.64241500       0.85968000       0.77418150
   184  C          0.35758500       0.14032000       0.27418150
   185  H          0.15949300       0.61769400       0.84230600
   186  H          0.84050700       0.38230600       0.34230600
   187  H          0.65949300       0.88230600       0.84230600
   188  H          0.34050700       0.11769400       0.34230600
   189  C          0.13280500       0.50112000       0.69828150
   190  C          0.86719500       0.49888000       0.19828150
   191  C          0.63280500      -0.00112000       0.69828150
   192  C          0.36719500       0.00112000       0.19828150
   193  H          0.14315200       0.38317700       0.71589900
   194  H          0.85684800       0.61682300       0.21589900
   195  H          0.64315200       0.11682300       0.71589900
   196  H          0.35684800       0.88317700       0.21589900
   197  C          0.10834500       0.52952000       0.59667150
   198  C          0.89165500       0.47048000       0.09667150
   199  C          0.60834500       0.97048000       0.59667150
   200  C          0.39165500       0.02952000       0.09667150
   201  C          0.08019600       0.37692000       0.54761150
   202  C          0.91980400       0.62308000       0.04761150
   203  C          0.58019600       0.12308000       0.54761150
   204  C          0.41980400       0.87692000       0.04761150
   205  H          0.10017300       0.27343600       0.53040600
   206  H          0.89982700       0.72656400       0.03040600
   207  H          0.60017300       0.22656400       0.53040600
   208  H          0.39982700       0.77343600       0.03040600
   209  H          0.06632200       0.41650500       0.47385300
   210  H          0.93367800       0.58349500       0.97385300
   211  H          0.56632200       0.08349500       0.47385300
   212  H          0.43367800       0.91650500       0.97385300
   213  C          0.04148600       0.31352000       0.63362150
   214  C          0.95851400       0.68648000       0.13362150
   215  C          0.54148600       0.18648000       0.63362150
   216  C          0.45851400       0.81352000       0.13362150
   217  H          0.01411200       0.28362100       0.58824400
   218  H          0.98588800       0.71637900       0.08824400
   219  H          0.51411200       0.21637900       0.58824400
   220  H          0.48588800       0.78362100       0.08824400
   221  H          0.05141200       0.20283800       0.67400400
   222  H          0.94858800       0.79716200       0.17400400
   223  H          0.55141200       0.29716200       0.67400400
   224  H          0.44858800       0.70283800       0.17400400
   225  C          0.02963500       0.45512000       0.72273150
   226  C          0.97036500       0.54488000       0.22273150
   227  C          0.52963500       0.04488000       0.72273150
   228  C          0.47036500       0.95512000       0.22273150
   229  C          0.04566600       0.44282000       0.83562160
   230  C          0.95433400       0.55718000       0.33562160
   231  C          0.54566600       0.05718000       0.83562160
   232  C          0.45433400       0.94282000       0.33562160
   233  H          0.05240300       0.32785700       0.86721100
   234  H          0.94759700       0.67214300       0.36721100
   235  H          0.55240300       0.17214300       0.86721100
   236  H          0.44759700       0.82785700       0.36721100
   237  C          0.05199500       0.59562000       0.90315150
   238  C          0.94800500       0.40438000       0.40315150
   239  C          0.55199500       0.90438000       0.90315150
   240  C          0.44800500       0.09562000       0.40315150
   241  H          0.06239400       0.58431700       0.98065400
   242  H          0.93760600       0.41568300       0.48065400
   243  H          0.56239400       0.91568300       0.98065400
   244  H          0.43760600       0.08431700       0.48065400
   245  C          0.04313500       0.76472000       0.85741150
   246  C          0.95686500       0.23528000       0.35741150
   247  C          0.54313500       0.73528000       0.85741150
   248  C          0.45686500       0.26472000       0.35741150
   249  C          0.01816500       0.77262000       0.75524150
   250  C          0.98183500       0.22738000       0.25524150
   251  C          0.51816500       0.72738000       0.75524150
   252  C          0.48183500       0.27262000       0.25524150
   253  H          0.00573900       0.88422800       0.73085500
   254  H          0.99426100       0.11577200       0.23085500
   255  H          0.50573900       0.61577200       0.73085500
   256  H          0.49426100       0.38422800       0.23085500
   257  C          0.01116500       0.61962000       0.68853150
   258  C          0.98883500       0.38038000       0.18853150
   259  C          0.51116500       0.88038000       0.68853150
   260  C          0.48883500       0.11962000       0.18853150
   261  H          0.99377500       0.62683700       0.61951400
   262  H          0.00622500       0.37316300       0.11951400
   263  H          0.49377500       0.87316300       0.61951400
   264  H          0.50622500       0.12683700       0.11951400
   265  C          0.06859600       0.92862000       0.90012160
   266  C          0.93140400       0.07138000       0.40012160
   267  C          0.56859600       0.57138000       0.90012160
   268  C          0.43140400       0.42862000       0.40012160
   269  H          0.07038400       0.92403000       0.98570000
   270  H          0.92961600       0.07597000       0.48570000
   271  H          0.57038400       0.57597000       0.98570000
   272  H          0.42961600       0.42403000       0.48570000
   273  H          0.05146500       0.03808000       0.87869100
   274  H          0.94853500       0.96192000       0.37869100
   275  H          0.55146500       0.46192000       0.87869100
   276  H          0.44853500       0.53808000       0.37869100
   277  C          0.11821600       0.94322000       0.84889160
   278  C          0.88178400       0.05678000       0.34889160
   279  C          0.61821600       0.55678000       0.84889160
   280  C          0.38178400       0.44322000       0.34889160
   281  H          0.12322800       0.06762800       0.82095200
   282  H          0.87677200       0.93237200       0.32095200
   283  H          0.62322800       0.43237200       0.82095200
   284  H          0.37677200       0.56762800       0.32095200
   285  H          0.14021900       0.91968900       0.91166100
   286  H          0.85978100       0.08031100       0.41166100
   287  H          0.64021900       0.58031100       0.91166100
   288  H          0.35978100       0.41968900       0.41166100
