data_BANHOO01
_symmetry_space_group_name_H-M    'P1'
_symmetry_Int_Tables_number       1
loop_
_symmetry_equiv_pos_site_id
_symmetry_equiv_pos_as_xyz
1 x,y,z
_cell_length_a                   3.8591
_cell_length_b                   30.9715
_cell_length_c                   11.3462
_cell_angle_alpha                90.0
_cell_angle_beta                 91.172
_cell_angle_gamma                90.0
loop_
_atom_site_label
_atom_site_type_symbol
_atom_site_fract_x
_atom_site_fract_y
_atom_site_fract_z
     1  O          0.26780000       0.03358500       0.39900000
     2  O          0.76780000       0.53358500       0.39900000
     3  O          0.26780000       0.96641500       0.89900000
     4  O          0.76780000       0.46641500       0.89900000
     5  O          0.16178000       0.97894500       0.28812000
     6  O          0.66178000       0.47894500       0.28812000
     7  O          0.16178000       0.02105500       0.78812000
     8  O          0.66178000       0.52105500       0.78812000
     9  O          0.37546000       0.17972400       0.38028000
    10  O          0.87546000       0.67972400       0.38028000
    11  O          0.37546000       0.82027600       0.88028000
    12  O          0.87546000       0.32027600       0.88028000
    13  N          0.15027000       0.01757600       0.30862000
    14  N          0.65027000       0.51757600       0.30862000
    15  N          0.15027000       0.98242400       0.80862000
    16  N          0.65027000       0.48242400       0.80862000
    17  N          0.34608000       0.20087500       0.01442000
    18  N          0.84608000       0.70087500       0.01442000
    19  N          0.34608000       0.79912500       0.51442000
    20  N          0.84608000       0.29912500       0.51442000
    21  C         -0.00743000       0.04600600       0.21912000
    22  C          0.49257000       0.54600600       0.21912000
    23  C         -0.00743000       0.95399400       0.71912000
    24  C          0.49257000       0.45399400       0.71912000
    25  C         -0.00423000       0.09008600       0.23782000
    26  C          0.49577000       0.59008600       0.23782000
    27  C         -0.00423000       0.90991400       0.73782000
    28  C          0.49577000       0.40991400       0.73782000
    29  C          0.85767000       0.11678600       0.15142000
    30  C          0.35767000       0.61678600       0.15142000
    31  C          0.85767000       0.88321400       0.65142000
    32  C          0.35767000       0.38321400       0.65142000
    33  C          0.72217000       0.09957500       0.04652000
    34  C          0.22217000       0.59957500       0.04652000
    35  C          0.72217000       0.90042500       0.54652000
    36  C          0.22217000       0.40042500       0.54652000
    37  C          0.71277000       0.05477500       0.03302000
    38  C          0.21277000       0.55477500       0.03302000
    39  C          0.71277000       0.94522500       0.53302000
    40  C          0.21277000       0.44522500       0.53302000
    41  C          0.85008000       0.02800600       0.11872000
    42  C          0.35008000       0.52800600       0.11872000
    43  C          0.85008000       0.97199400       0.61872000
    44  C          0.35008000       0.47199400       0.61872000
    45  C          0.59947000       0.12788500       0.94868000
    46  C          0.09947000       0.62788500       0.94868000
    47  C          0.59947000       0.87211500       0.44868000
    48  C          0.09947000       0.37211500       0.44868000
    49  C          0.46028000       0.16905600       0.98258000
    50  C          0.96028000       0.66905600       0.98258000
    51  C          0.46028000       0.83094400       0.48258000
    52  C          0.96028000       0.33094400       0.48258000
    53  C          0.63147000       0.11555600       0.83528000
    54  C          0.13147000       0.61555600       0.83528000
    55  C          0.63147000       0.88444400       0.33528000
    56  C          0.13147000       0.38444400       0.33528000
    57  C          0.54727000       0.13561500       0.72268000
    58  C          0.04727000       0.63561500       0.72268000
    59  C          0.54727000       0.86438500       0.22268000
    60  C          0.04727000       0.36438500       0.22268000
    61  C          0.39828000       0.17635600       0.70438000
    62  C          0.89828000       0.67635600       0.70438000
    63  C          0.39828000       0.82364400       0.20438000
    64  C          0.89828000       0.32364400       0.20438000
    65  C          0.33688000       0.19245600       0.59218000
    66  C          0.83688000       0.69245600       0.59218000
    67  C          0.33688000       0.80754400       0.09218000
    68  C          0.83688000       0.30754400       0.09218000
    69  C          0.42267000       0.16768600       0.49468000
    70  C          0.92267000       0.66768600       0.49468000
    71  C          0.42267000       0.83231400      -0.00532000
    72  C          0.92267000       0.33231400      -0.00532000
    73  C          0.56867000       0.12711600       0.51137000
    74  C          0.06867000       0.62711600       0.51137000
    75  C          0.56867000       0.87288400       0.01137000
    76  C          0.06867000       0.37288400       0.01137000
    77  C          0.62938000       0.11177600       0.62218000
    78  C          0.12938000       0.61177600       0.62218000
    79  C          0.62938000       0.88822400       0.12218000
    80  C          0.12938000       0.38822400       0.12218000
    81  C          0.22899000       0.22121800       0.35557000
    82  C          0.72899000       0.72121800       0.35557000
    83  C          0.22899000       0.77878200       0.85557000
    84  C          0.72899000       0.27878200       0.85557000
    85  H          0.11250000       0.10256000       0.31020000
    86  H          0.61250000       0.60256000       0.31020000
    87  H          0.11250000       0.89744000       0.81020000
    88  H          0.61250000       0.39744000       0.81020000
    89  H          0.87040000       0.14696000       0.16420000
    90  H          0.37040000       0.64696000       0.16420000
    91  H          0.87040000       0.85304000       0.66420000
    92  H          0.37040000       0.35304000       0.66420000
    93  H          0.59750000       0.04306000       0.96780000
    94  H          0.09750000       0.54306000       0.96780000
    95  H          0.59750000       0.95694000       0.46780000
    96  H          0.09750000       0.45694000       0.46780000
    97  H          0.84560000      -0.00167000       0.10820000
    98  H          0.34560000       0.49833000       0.10820000
    99  H          0.84560000       0.00167000       0.60820000
   100  H          0.34560000       0.50167000       0.60820000
   101  H          0.73840000       0.08776000       0.82590000
   102  H          0.23840000       0.58776000       0.82590000
   103  H          0.73840000       0.91224000       0.32590000
   104  H          0.23840000       0.41224000       0.32590000
   105  H          0.34360000       0.19447000       0.77280000
   106  H          0.84360000       0.69447000       0.77280000
   107  H          0.34360000       0.80553000       0.27280000
   108  H          0.84360000       0.30553000       0.27280000
   109  H          0.24050000       0.22126000       0.58380000
   110  H          0.74050000       0.72126000       0.58380000
   111  H          0.24050000       0.77874000       0.08380000
   112  H          0.74050000       0.27874000       0.08380000
   113  H          0.61650000       0.11046000       0.44380000
   114  H          0.11650000       0.61046000       0.44380000
   115  H          0.61650000       0.88954000       0.94380000
   116  H          0.11650000       0.38954000       0.94380000
   117  H          0.74450000       0.08357000       0.63680000
   118  H          0.24450000       0.58357000       0.63680000
   119  H          0.74450000       0.91643000       0.13680000
   120  H          0.24450000       0.41643000       0.13680000
   121  H          0.21470000       0.22139000       0.27270000
   122  H          0.71470000       0.72139000       0.27270000
   123  H          0.21470000       0.77861000       0.77270000
   124  H          0.71470000       0.27861000       0.77270000
   125  H         -0.00760000       0.22356000       0.38580000
   126  H          0.49240000       0.72356000       0.38580000
   127  H         -0.00760000       0.77644000       0.88580000
   128  H          0.49240000       0.27644000       0.88580000
   129  H          0.39160000       0.24437000       0.39380000
   130  H          0.89160000       0.74437000       0.39380000
   131  H          0.39160000       0.75563000       0.89380000
   132  H          0.89160000       0.25563000       0.89380000
