data_BANHOO
_symmetry_space_group_name_H-M    'P1'
_symmetry_Int_Tables_number       1
loop_
_symmetry_equiv_pos_site_id
_symmetry_equiv_pos_as_xyz
1 x,y,z
_cell_length_a                   3.8141
_cell_length_b                   12.3713
_cell_length_c                   28.1325
_cell_angle_alpha                90.0
_cell_angle_beta                 91.502
_cell_angle_gamma                90.0
loop_
_atom_site_label
_atom_site_type_symbol
_atom_site_fract_x
_atom_site_fract_y
_atom_site_fract_z
     1  O          0.38395000       0.37191000       0.29084600
     2  O          0.11605000       0.87191000       0.20915400
     3  O          0.61605000       0.62809000       0.70915400
     4  O          0.88395000       0.12809000       0.79084600
     5  O          0.18375000       0.48181000       0.23703500
     6  O          0.31625000       0.98181000       0.26296500
     7  O          0.81625000       0.51819000       0.76296500
     8  O          0.68375000       0.01819000       0.73703500
     9  O          0.16054000       0.35431000       0.41817500
    10  O          0.33946000       0.85431000       0.08182500
    11  O          0.83946000       0.64569000       0.58182500
    12  O          0.66054000       0.14569000       0.91817500
    13  N          0.34385000       0.46341000       0.27479600
    14  N          0.15615000       0.96341000       0.22520400
    15  N          0.65615000       0.53659000       0.72520400
    16  N          0.84385000       0.03659000       0.77479600
    17  N          0.24355000       0.78022000       0.45555700
    18  N          0.25645000       0.28022000       0.04444300
    19  N          0.75645000       0.21978000       0.54444300
    20  N          0.74355000       0.71978000       0.95555700
    21  C          0.32726000       0.38062000       0.46293800
    22  C          0.17274000       0.88062000       0.03706200
    23  C          0.67274000       0.61938000       0.53706200
    24  C          0.82726000       0.11938000       0.96293800
    25  C          0.49196000       0.55512000       0.30124700
    26  C          0.00804000       0.05512000       0.19875300
    27  C          0.50804000       0.44488000       0.69875300
    28  C         -0.00804000       0.94488000       0.80124700
    29  C          0.62466000       0.53952000       0.34686700
    30  C          0.87534000       0.03952000       0.15313300
    31  C          0.37534000       0.46048000       0.65313300
    32  C          0.12466000       0.96048000       0.84686700
    33  C          0.75916000       0.62822000       0.37134700
    34  C          0.74084000       0.12822000       0.12865300
    35  C          0.24084000       0.37178000       0.62865300
    36  C          0.25916000       0.87178000       0.87134700
    37  C          0.76245000       0.73102000       0.35088700
    38  C          0.73755000       0.23102000       0.14911300
    39  C          0.23755000       0.26898000       0.64911300
    40  C          0.26245000       0.76898000       0.85088700
    41  C          0.63086000       0.74202000       0.30415700
    42  C          0.86914000       0.24202000       0.19584300
    43  C          0.36914000       0.25798000       0.69584300
    44  C          0.13086000       0.75798000       0.80415700
    45  C          0.49176000       0.65532000       0.27952700
    46  C          0.00824000       0.15532000       0.22047300
    47  C          0.50824000       0.34468000       0.72047300
    48  C         -0.00824000       0.84468000       0.77952700
    49  C          0.89905000       0.82662000       0.37771700
    50  C          0.60095000       0.32662000       0.12228300
    51  C          0.10095000       0.17338000       0.62228300
    52  C          0.39905000       0.67338000       0.87771700
    53  C          0.09005000       0.80282000       0.42156700
    54  C          0.40995000       0.30282000       0.07843300
    55  C          0.90995000       0.19718000       0.57843300
    56  C          0.59005000       0.69718000       0.92156700
    57  C          0.84016000       0.92892000       0.36270700
    58  C          0.65984000       0.42892000       0.13729300
    59  C          0.15984000       0.07108000       0.63729300
    60  C          0.34016000       0.57108000       0.86270700
    61  C          0.93835000       0.03442000       0.38127700
    62  C          0.56165000       0.53442000       0.11872300
    63  C          0.06165000       0.96558000       0.61872300
    64  C          0.43835000       0.46558000       0.88127700
    65  C          0.11266000       0.05702000       0.42479700
    66  C          0.38734000       0.55702000       0.07520300
    67  C          0.88734000       0.94298000       0.57520300
    68  C          0.61266000       0.44298000       0.92479700
    69  C          0.19086000       0.16232000       0.43845700
    70  C          0.30914000       0.66232000       0.06154300
    71  C          0.80914000       0.83768000       0.56154300
    72  C          0.69086000       0.33768000       0.93845700
    73  C          0.09706000       0.24712000       0.40852800
    74  C          0.40294000       0.74712000       0.09147200
    75  C          0.90294000       0.75288000       0.59147200
    76  C          0.59706000       0.25288000       0.90852800
    77  C          0.92216000       0.22742000       0.36527700
    78  C          0.57784000       0.72742000       0.13472300
    79  C          0.07784000       0.77258000       0.63472300
    80  C          0.42216000       0.27258000       0.86527700
    81  C          0.84425000       0.12312000       0.35249700
    82  C          0.65575000       0.62312000       0.14750300
    83  C          0.15575000       0.87688000       0.64750300
    84  C          0.34425000       0.37688000       0.85249700
    85  H          0.62370000       0.46990000       0.36110000
    86  H          0.87630000       0.96990000       0.13890000
    87  H          0.37630000       0.53010000       0.63890000
    88  H          0.12370000       0.03010000       0.86110000
    89  H          0.85130000       0.61880000       0.40280000
    90  H          0.64870000       0.11880000       0.09720000
    91  H          0.14870000       0.38120000       0.59720000
    92  H          0.35130000       0.88120000       0.90280000
    93  H          0.63780000       0.81080000       0.28920000
    94  H          0.86220000       0.31080000       0.21080000
    95  H          0.36220000       0.18920000       0.71080000
    96  H          0.13780000       0.68920000       0.78920000
    97  H          0.39730000       0.66420000       0.24820000
    98  H          0.10270000       0.16420000       0.25180000
    99  H          0.60270000       0.33580000       0.75180000
   100  H          0.89730000       0.83580000       0.74820000
   101  H          0.70580000       0.93260000       0.33380000
   102  H          0.79420000       0.43260000       0.16620000
   103  H          0.29420000       0.06740000       0.66620000
   104  H          0.20580000       0.56740000       0.83380000
   105  H          0.17820000      -0.00110000       0.44530000
   106  H          0.32180000       0.49890000       0.05470000
   107  H          0.82180000       0.00110000       0.55470000
   108  H          0.67820000       0.50110000       0.94530000
   109  H          0.30760000       0.17620000       0.46810000
   110  H          0.19240000       0.67620000       0.03190000
   111  H          0.69240000       0.82380000       0.53190000
   112  H          0.80760000       0.32380000       0.96810000
   113  H          0.85750000       0.28570000       0.34490000
   114  H          0.64250000       0.78570000       0.15510000
   115  H          0.14250000       0.71430000       0.65510000
   116  H          0.35750000       0.21430000       0.84490000
   117  H          0.72230000       0.11030000       0.32310000
   118  H          0.77770000       0.61030000       0.17690000
   119  H          0.27770000       0.88970000       0.67690000
   120  H          0.22230000       0.38970000       0.82310000
   121  H          0.18460000       0.35670000       0.48800000
   122  H          0.31540000       0.85670000       0.01200000
   123  H          0.81540000       0.64330000       0.51200000
   124  H          0.68460000       0.14330000       0.98800000
   125  H          0.54910000       0.34590000       0.46530000
   126  H          0.95090000       0.84590000       0.03470000
   127  H          0.45090000       0.65410000       0.53470000
   128  H          0.04910000       0.15410000       0.96530000
   129  H          0.35830000       0.45660000       0.46510000
   130  H          0.14170000       0.95660000       0.03490000
   131  H          0.64170000       0.54340000       0.53490000
   132  H          0.85830000       0.04340000       0.96510000
