data_BANHOO02
_symmetry_space_group_name_H-M    'P1'
_symmetry_Int_Tables_number       1
loop_
_symmetry_equiv_pos_site_id
_symmetry_equiv_pos_as_xyz
1 x,y,z
_cell_length_a                   4.60027
_cell_length_b                   31.9474
_cell_length_c                   9.5111
_cell_angle_alpha                90.0
_cell_angle_beta                 92.811
_cell_angle_gamma                90.0
loop_
_atom_site_label
_atom_site_type_symbol
_atom_site_fract_x
_atom_site_fract_y
_atom_site_fract_z
     1  O          0.18270000       0.03993200       0.84260000
     2  O          0.68270000       0.53993200       0.84260000
     3  O          0.18270000       0.96006800       0.34260000
     4  O          0.68270000       0.46006800       0.34260000
     5  O          0.26763000       0.99010300      -0.01254000
     6  O          0.76763000       0.49010300      -0.01254000
     7  O          0.26763000       0.00989700       0.48746000
     8  O          0.76763000       0.50989700       0.48746000
     9  O          0.12207000       0.17253300       0.77523000
    10  O          0.62207000       0.67253300       0.77523000
    11  O          0.12207000       0.82746700       0.27523000
    12  O          0.62207000       0.32746700       0.27523000
    13  N          0.30993000       0.02560200       0.94576000
    14  N          0.80993000       0.52560200       0.94576000
    15  N          0.30993000       0.97439800       0.44576000
    16  N          0.80993000       0.47439800       0.44576000
    17  N          0.17679000       0.20265900       0.17384000
    18  N          0.67679000       0.70265900       0.17384000
    19  N          0.17679000       0.79734100       0.67384000
    20  N          0.67679000       0.29734100       0.67384000
    21  C          0.51712000       0.05193100       0.02704000
    22  C          0.01712000       0.55193100       0.02704000
    23  C          0.51712000       0.94806900       0.52704000
    24  C          0.01712000       0.44806900       0.52704000
    25  C          0.56342000       0.09265900      -0.01394000
    26  C          0.06342000       0.59265900      -0.01394000
    27  C          0.56342000       0.90734100       0.48606000
    28  C          0.06342000       0.40734100       0.48606000
    29  C          0.76082000       0.11671900       0.06324000
    30  C          0.26082000       0.61671900       0.06324000
    31  C          0.76082000       0.88328100       0.56324000
    32  C          0.26082000       0.38328100       0.56324000
    33  C          0.91553000       0.10099100       0.18064000
    34  C          0.41553000       0.60099100       0.18064000
    35  C          0.91553000       0.89900900       0.68064000
    36  C          0.41553000       0.39900900       0.68064000
    37  C          0.86192000       0.05948100       0.21954000
    38  C          0.36192000       0.55948100       0.21954000
    39  C          0.86192000       0.94051900       0.71954000
    40  C          0.36192000       0.44051900       0.71954000
    41  C          0.66701000       0.03528900       0.14294000
    42  C          0.16701000       0.53528900       0.14294000
    43  C          0.66701000       0.96471100       0.64294000
    44  C          0.16701000       0.46471100       0.64294000
    45  C          0.12797000       0.12695200       0.26354000
    46  C          0.62797000       0.62695200       0.26354000
    47  C          0.12797000       0.87304800       0.76354000
    48  C          0.62797000       0.37304800       0.76354000
    49  C          0.15778000       0.16939000       0.21574000
    50  C          0.65778000       0.66939000       0.21574000
    51  C          0.15778000       0.83061000       0.71574000
    52  C          0.65778000       0.33061000       0.71574000
    53  C          0.29078000       0.11246100       0.37514000
    54  C          0.79078000       0.61246100       0.37514000
    55  C          0.29078000       0.88753900       0.87514000
    56  C          0.79078000       0.38753900       0.87514000
    57  C          0.50808000       0.13155100       0.47064000
    58  C          0.00808000       0.63155100       0.47064000
    59  C          0.50808000       0.86844900       0.97064000
    60  C          0.00808000       0.36844900       0.97064000
    61  C          0.58138000       0.17367100       0.47884000
    62  C          0.08138000       0.67367100       0.47884000
    63  C          0.58138000       0.82632900       0.97884000
    64  C          0.08138000       0.32632900       0.97884000
    65  C          0.78379000       0.18863900       0.57864000
    66  C          0.28379000       0.68863900       0.57864000
    67  C          0.78379000       0.81136100       0.07864000
    68  C          0.28379000       0.31136100       0.07864000
    69  C          0.92288000       0.16143100       0.67234000
    70  C          0.42288000       0.66143100       0.67234000
    71  C          0.92288000       0.83856900       0.17234000
    72  C          0.42288000       0.33856900       0.17234000
    73  C          0.85768000       0.11876900       0.66454000
    74  C          0.35768000       0.61876900       0.66454000
    75  C          0.85768000       0.88123100       0.16454000
    76  C          0.35768000       0.38123100       0.16454000
    77  C          0.65439000       0.10488900       0.56754000
    78  C          0.15439000       0.60488900       0.56754000
    79  C          0.65439000       0.89511100       0.06754000
    80  C          0.15439000       0.39511100       0.06754000
    81  C          0.18010000       0.21629000       0.79546000
    82  C          0.68010000       0.71629000       0.79546000
    83  C          0.18010000       0.78371000       0.29546000
    84  C          0.68010000       0.28371000       0.29546000
    85  H          0.46540000       0.10319000       0.91070000
    86  H          0.96540000       0.60319000       0.91070000
    87  H          0.46540000       0.89681000       0.41070000
    88  H          0.96540000       0.39681000       0.41070000
    89  H          0.78940000       0.14271000       0.03630000
    90  H          0.28940000       0.64271000       0.03630000
    91  H          0.78940000       0.85729000       0.53630000
    92  H          0.28940000       0.35729000       0.53630000
    93  H         -0.03060000       0.04881000       0.30230000
    94  H          0.46940000       0.54881000       0.30230000
    95  H         -0.03060000       0.95119000       0.80230000
    96  H          0.46940000       0.45119000       0.80230000
    97  H          0.60930000       0.00790000       0.17230000
    98  H          0.10930000       0.50790000       0.17230000
    99  H          0.60930000       0.99210000       0.67230000
   100  H          0.10930000       0.49210000       0.67230000
   101  H          0.25470000       0.08561000       0.39130000
   102  H          0.75470000       0.58561000       0.39130000
   103  H          0.25470000       0.91439000       0.89130000
   104  H          0.75470000       0.41439000       0.89130000
   105  H          0.49070000       0.19371000       0.41130000
   106  H         -0.00930000       0.69371000       0.41130000
   107  H          0.49070000       0.80629000       0.91130000
   108  H         -0.00930000       0.30629000       0.91130000
   109  H          0.83670000       0.21790000       0.57930000
   110  H          0.33670000       0.71790000       0.57930000
   111  H          0.83670000       0.78210000       0.07930000
   112  H          0.33670000       0.28210000       0.07930000
   113  H         -0.02340000       0.10002000       0.72530000
   114  H          0.47660000       0.60002000       0.72530000
   115  H         -0.02340000       0.89998000       0.22530000
   116  H          0.47660000       0.39998000       0.22530000
   117  H          0.60770000       0.07890000       0.56040000
   118  H          0.10770000       0.57890000       0.56040000
   119  H          0.60770000       0.92110000       0.06040000
   120  H          0.10770000       0.42110000       0.06040000
   121  H         -0.01900000       0.22990000       0.82450000
   122  H          0.48100000       0.72990000       0.82450000
   123  H         -0.01900000       0.77010000       0.32450000
   124  H          0.48100000       0.27010000       0.32450000
   125  H          0.26670000       0.22890000       0.70340000
   126  H          0.76670000       0.72890000       0.70340000
   127  H          0.26670000       0.77110000       0.20340000
   128  H          0.76670000       0.27110000       0.20340000
   129  H          0.30780000       0.21681000       0.85940000
   130  H          0.80780000       0.71681000       0.85940000
   131  H          0.30780000       0.78319000       0.35940000
   132  H          0.80780000       0.28319000       0.35940000
