data_BAPLOT09
_symmetry_space_group_name_H-M    'P1'
_symmetry_Int_Tables_number       1
loop_
_symmetry_equiv_pos_site_id
_symmetry_equiv_pos_as_xyz
1 x,y,z
_cell_length_a                   3.87444
_cell_length_b                   12.88989
_cell_length_c                   8.11676
_cell_angle_alpha                90.0
_cell_angle_beta                 98.9658
_cell_angle_gamma                90.0
loop_
_atom_site_label
_atom_site_type_symbol
_atom_site_fract_x
_atom_site_fract_y
_atom_site_fract_z
     1  C          0.50818600       0.77906000       0.66703000
     2  C          0.00818600       0.22094000       0.16703000
     3  C          0.34248800       0.84696000       0.92424000
     4  C          0.84248800       0.15304000       0.42424000
     5  N          0.40758800       0.68326000       0.72624000
     6  N          0.90758800       0.31674000       0.22624000
     7  C          0.28798500       0.66535000       0.87743000
     8  C          0.78798500       0.33465000       0.37743000
     9  N          0.25568800       0.75096000       0.97674000
    10  N          0.75568800       0.24904000       0.47674000
    11  O          0.21448500       0.57857000       0.91743000
    12  O          0.71448500       0.42143000       0.41743000
    13  O          0.60988700       0.78717000       0.53104000
    14  O          0.10988700       0.21283000       0.03104000
    15  N          0.32598700       0.93766000       0.00756000
    16  N          0.82598700       0.06234000       0.50756000
    17  C          0.14780000       0.73604000       0.14077000
    18  C          0.64780000       0.26396000       0.64077000
    19  H          0.34860000       0.74250000       0.22620000
    20  H          0.84860000       0.25750000       0.72620000
    21  H          0.04800000       0.66830000       0.14590000
    22  H          0.54800000       0.33170000       0.64590000
    23  H         -0.02130000       0.78770000       0.15720000
    24  H          0.47870000       0.21230000       0.65720000
    25  C          0.44088400       0.00694000       0.90733000
    26  C          0.94088400      -0.00694000       0.40733000
    27  H          0.45850000       0.07740000       0.93180000
    28  H         -0.04150000       0.92260000       0.43180000
    29  C          0.43280000       0.59085000       0.61978900
    30  C          0.93280000       0.40915000       0.11978900
    31  H          0.20660000       0.55990000       0.59110000
    32  H          0.70660000       0.44010000       0.09110000
    33  H          0.59100000       0.54150000       0.67960000
    34  H          0.09100000       0.45850000       0.17960000
    35  H          0.51890000       0.61140000       0.51990000
    36  H          0.01890000       0.38860000       0.01990000
    37  C          0.46528700       0.86076000       0.77883000
    38  C         -0.03471300       0.13924000       0.27883000
    39  N          0.52788900       0.96627000       0.76965000
    40  N          0.02788900       0.03373000       0.26965000
    41  H          0.60700000      -0.00130000       0.69090000
    42  H          0.10700000       0.00130000       0.19090000
