data_BAPLOT02
_symmetry_space_group_name_H-M    'P1'
_symmetry_Int_Tables_number       1
loop_
_symmetry_equiv_pos_site_id
_symmetry_equiv_pos_as_xyz
1 x,y,z
_cell_length_a                   7.89356
_cell_length_b                   12.90877
_cell_length_c                   15.90558
_cell_angle_alpha                90.0
_cell_angle_beta                 104.2145
_cell_angle_gamma                90.0
loop_
_atom_site_label
_atom_site_type_symbol
_atom_site_fract_x
_atom_site_fract_y
_atom_site_fract_z
     1  C          0.30563000       0.02115170       0.09461140
     2  C          0.69437000       0.52115170       0.40538860
     3  C          0.69437000       0.97884830       0.90538860
     4  C          0.30563000       0.47884830       0.59461140
     5  C          0.48773000       0.17786170       0.09060140
     6  C          0.51227000       0.67786170       0.40939860
     7  C          0.51227000       0.82213830       0.90939860
     8  C          0.48773000       0.32213830       0.59060140
     9  C          0.33283000       0.09963170       0.95942870
    10  C          0.66717000       0.59963170       0.54057130
    11  C          0.66717000       0.90036830       0.04057130
    12  C          0.33283000       0.40036830       0.45942870
    13  C          0.26723000       0.02566170       0.00340140
    14  C          0.73277000       0.52566170       0.49659860
    15  C          0.73277000       0.97433830      -0.00340140
    16  C          0.26723000       0.47433830       0.50340140
    17  C          0.17633000       0.00452000       0.86465850
    18  C          0.82367000       0.50452000       0.63534150
    19  C          0.82367000      -0.00452000       0.13534150
    20  C          0.17633000       0.49548000       0.36465850
    21  C          0.46244000       0.10562000       0.22819150
    22  C          0.53756000       0.60562000       0.27180850
    23  C          0.53756000       0.89438000       0.77180850
    24  C          0.46244000       0.39438000       0.72819150
    25  C          0.51853000       0.25162000       0.95376840
    26  C          0.48147000       0.75162000       0.54623160
    27  C          0.48147000       0.74838000       0.04623160
    28  C          0.51853000       0.24838000       0.45376840
    29  N          0.41602000       0.10126140       0.13328110
    30  N          0.58398000       0.60126140       0.36671890
    31  N          0.58398000       0.89873860       0.86671890
    32  N          0.41602000       0.39873860       0.63328110
    33  N          0.44342000       0.17564140       0.00173110
    34  N          0.55658000       0.67564140       0.49826890
    35  N          0.55658000       0.82435860      -0.00173110
    36  N          0.44342000       0.32435860       0.50173110
    37  N          0.27793000       0.08774150       0.87231880
    38  N          0.72207000       0.58774150       0.62768120
    39  N          0.72207000       0.91225850       0.12768120
    40  N          0.27793000       0.41225850       0.37231880
    41  N          0.16532000       0.96436850       0.94004880
    42  N          0.83468000       0.46436850       0.55995120
    43  N          0.83468000       0.03563150       0.05995120
    44  N          0.16532000       0.53563150       0.44004880
    45  O          0.25292000       0.95717870       0.13937100
    46  O          0.74708000       0.45717870       0.36062900
    47  O          0.74708000       0.04282130       0.86062900
    48  O          0.25292000       0.54282130       0.63937100
    49  O          0.58512000       0.24386130       0.13070100
    50  O          0.41488000       0.74386130       0.36929900
    51  O          0.41488000       0.75613870       0.86929900
    52  O          0.58512000       0.25613870       0.63070100
    53  H          0.11810000       0.97680000       0.81140000
    54  H          0.88190000       0.47680000       0.68860000
    55  H          0.88190000       0.02320000       0.18860000
    56  H          0.11810000       0.52320000       0.31140000
    57  H          0.55440000       0.15520000       0.24750000
    58  H          0.44560000       0.65520000       0.25250000
    59  H          0.44560000       0.84480000       0.75250000
    60  H          0.55440000       0.34480000       0.74750000
    61  H          0.50130000       0.03860000       0.25120000
    62  H          0.49870000       0.53860000       0.24880000
    63  H          0.49870000       0.96140000       0.74880000
    64  H          0.50130000       0.46140000       0.75120000
    65  H          0.36190000       0.12590000       0.24810000
    66  H          0.63810000       0.62590000       0.25190000
    67  H          0.63810000       0.87410000       0.75190000
    68  H          0.36190000       0.37410000       0.74810000
    69  H          0.49130000       0.32010000       0.97000000
    70  H          0.50870000       0.82010000       0.53000000
    71  H          0.50870000       0.67990000       0.03000000
    72  H          0.49130000       0.17990000       0.47000000
    73  H          0.47070000       0.24190000       0.89270000
    74  H          0.52930000       0.74190000       0.60730000
    75  H          0.52930000       0.75810000       0.10730000
    76  H          0.47070000       0.25810000       0.39270000
    77  H          0.64300000       0.24290000       0.96700000
    78  H          0.35700000       0.74290000       0.53300000
    79  H          0.35700000       0.75710000       0.03300000
    80  H          0.64300000       0.25710000       0.46700000
    81  H          0.10620000       0.91070000       0.94770000
    82  H          0.89380000       0.41070000       0.55230000
    83  H          0.89380000       0.08930000       0.05230000
    84  H          0.10620000       0.58930000       0.44770000
    85  C          0.06353000       0.28631170       0.02459140
    86  C          0.93647000       0.78631170       0.47540860
    87  C          0.93647000       0.71368830       0.97540860
    88  C          0.06353000       0.21368830       0.52459140
    89  C          0.22093000       0.45280170       0.02194140
    90  C          0.77907000       0.95280170       0.47805860
    91  C          0.77907000       0.54719830       0.97805860
    92  C          0.22093000       0.04719830       0.52194140
    93  C          0.07523000       0.37253170       0.89022130
    94  C          0.92477000       0.87253170       0.60977870
    95  C          0.92477000       0.62746830       0.10977870
    96  C          0.07523000       0.12746830       0.39022130
    97  C          0.02203000       0.29279160       0.93328130
    98  C         -0.02203000       0.79279160       0.56671870
    99  C         -0.02203000       0.70720840       0.06671870
   100  C          0.02203000       0.20720840       0.43328130
   101  C          0.92677000       0.27496190       0.79473140
   102  C          0.07323000       0.77496190       0.70526860
   103  C          0.07323000       0.72503810       0.20526860
   104  C          0.92677000       0.22503810       0.29473140
   105  C          0.21963000       0.37242000       0.15919140
   106  C          0.78037000       0.87242000       0.34080860
   107  C          0.78037000       0.62758000       0.84080860
   108  C          0.21963000       0.12758000       0.65919140
   109  C          0.23683000       0.53625190       0.88634160
   110  C          0.76317000       0.03625190       0.61365840
   111  C          0.76317000       0.46374810       0.11365840
   112  C          0.23683000       0.96374810       0.38634160
   113  N          0.16462000       0.36962140       0.06438110
   114  N          0.83538000       0.86962140       0.43561890
   115  N          0.83538000       0.63037860       0.93561890
   116  N          0.16462000       0.13037860       0.56438110
   117  N          0.17422000       0.45278140       0.93298120
   118  N          0.82578000       0.95278140       0.56701880
   119  N          0.82578000       0.54721860       0.06701880
   120  N          0.17422000       0.04721860       0.43298120
   121  N          0.01723000       0.36232150       0.80311120
   122  N         -0.01723000       0.86232150       0.69688880
   123  N         -0.01723000       0.63767850       0.19688880
   124  N          0.01723000       0.13767850       0.30311120
   125  N          0.92468000       0.23019150       0.86970110
   126  N          0.07532000       0.73019150       0.63029890
   127  N          0.07532000       0.76980850       0.13029890
   128  N          0.92468000       0.26980850       0.36970110
   129  O          0.02082000       0.21730130       0.06858100
   130  O         -0.02082000       0.71730130       0.43141900
   131  O         -0.02082000       0.78269870       0.93141900
   132  O          0.02082000       0.28269870       0.56858100
   133  O          0.30762000       0.52232130       0.06289110
   134  O          0.69238000       0.02232130       0.43710890
   135  O          0.69238000       0.47767870       0.93710890
   136  O          0.30762000       0.97767870       0.56289110
   137  H          0.86990000       0.24740000       0.74120000
   138  H          0.13010000       0.74740000       0.75880000
   139  H          0.13010000       0.75260000       0.25880000
   140  H          0.86990000       0.25260000       0.24120000
   141  H          0.34480000       0.36910000       0.17740000
   142  H          0.65520000       0.86910000       0.32260000
   143  H          0.65520000       0.63090000       0.82260000
   144  H          0.34480000       0.13090000       0.67740000
   145  H          0.17040000       0.31430000       0.18250000
   146  H          0.82960000       0.81430000       0.31750000
   147  H          0.82960000       0.68570000       0.81750000
   148  H          0.17040000       0.18570000       0.68250000
   149  H          0.17970000       0.43550000       0.17980000
   150  H          0.82030000       0.93550000       0.32020000
   151  H          0.82030000       0.56450000       0.82020000
   152  H          0.17970000       0.06450000       0.67980000
   153  H          0.20420000       0.60190000       0.90610000
   154  H          0.79580000       0.10190000       0.59390000
   155  H          0.79580000       0.39810000       0.09390000
   156  H          0.20420000       0.89810000       0.40610000
   157  H          0.18560000       0.52930000       0.82530000
   158  H          0.81440000       0.02930000       0.67470000
   159  H          0.81440000       0.47070000       0.17470000
   160  H          0.18560000       0.97070000       0.32530000
   161  H          0.36170000       0.53240000       0.89700000
   162  H          0.63830000       0.03240000       0.60300000
   163  H          0.63830000       0.46760000       0.10300000
   164  H          0.36170000       0.96760000       0.39700000
   165  H          0.87280000       0.17350000       0.87690000
   166  H          0.12720000       0.67350000       0.62310000
   167  H          0.12720000       0.82650000       0.12310000
   168  H          0.87280000       0.32650000       0.37690000
