data_BAPLOT04
_symmetry_space_group_name_H-M    'P1'
_symmetry_Int_Tables_number       1
loop_
_symmetry_equiv_pos_site_id
_symmetry_equiv_pos_as_xyz
1 x,y,z
_cell_length_a                   13.1582
_cell_length_b                   15.6303
_cell_length_c                   3.85401
_cell_angle_alpha                90.0
_cell_angle_beta                 90.0
_cell_angle_gamma                90.0
loop_
_atom_site_label
_atom_site_type_symbol
_atom_site_fract_x
_atom_site_fract_y
_atom_site_fract_z
     1  C          0.97583000       0.40356000       0.65830000
     2  C          0.02417000       0.59644000       0.15830000
     3  C          0.52417000       0.90356000       0.15830000
     4  C          0.47583000       0.09644000       0.65830000
     5  H          0.93780000       0.45140000       0.58090000
     6  H          0.06220000       0.54860000       0.08090000
     7  H          0.56220000       0.95140000       0.08090000
     8  H          0.43780000       0.04860000       0.58090000
     9  C          0.01946000       0.26825000       0.77230000
    10  C          0.98054000       0.73175000       0.27230000
    11  C          0.48054000       0.76825000       0.27230000
    12  C          0.51946000       0.23175000       0.77230000
    13  C          0.02716000       0.18086000       0.80740000
    14  C          0.97284000       0.81914000       0.30740000
    15  C          0.47284000       0.68086000       0.30740000
    16  C          0.52716000       0.31914000       0.80740000
    17  C          0.18866000       0.21165000       0.11630000
    18  C          0.81134000       0.78835000       0.61630000
    19  C          0.31134000       0.71165000       0.61630000
    20  C          0.68866000       0.28835000       0.11630000
    21  C          0.09136000       0.32566000       0.89530000
    22  C          0.90864000       0.67434000       0.39530000
    23  C          0.40864000       0.82566000       0.39530000
    24  C          0.59136000       0.17434000       0.89530000
    25  C          0.13457000       0.06265000       0.05830000
    26  C          0.86543000       0.93735000       0.55830000
    27  C          0.36543000       0.56265000       0.55830000
    28  C          0.63457000       0.43735000       0.05830000
    29  H          0.20630000       0.05370000       0.11420000
    30  H          0.79370000       0.94630000       0.61420000
    31  H          0.29370000       0.55370000       0.61420000
    32  H          0.70630000       0.44630000       0.11420000
    33  H          0.11710000       0.02960000       0.84970000
    34  H          0.88290000       0.97040000       0.34970000
    35  H          0.38290000       0.52960000       0.34970000
    36  H          0.61710000       0.47040000       0.84970000
    37  H          0.09230000       0.04350000       0.25230000
    38  H          0.90770000       0.95650000       0.75230000
    39  H          0.40770000       0.54350000       0.75230000
    40  H          0.59230000       0.45650000       0.25230000
    41  C          0.25246000       0.35935000       0.19030000
    42  C          0.74754000       0.64065000       0.69030000
    43  C          0.24754000       0.85935000       0.69030000
    44  C          0.75246000       0.14065000       0.19030000
    45  H          0.27130000       0.34640000       0.43050000
    46  H          0.72870000       0.65360000       0.93050000
    47  H          0.22870000       0.84640000       0.93050000
    48  H          0.77130000       0.15360000       0.43050000
    49  H          0.22320000       0.41690000       0.17830000
    50  H          0.77680000       0.58310000       0.67830000
    51  H          0.27680000       0.91690000       0.67830000
    52  H          0.72320000       0.08310000       0.17830000
    53  H          0.31300000       0.35650000       0.04260000
    54  H          0.68700000       0.64350000       0.54260000
    55  H          0.18700000       0.85650000       0.54260000
    56  H          0.81300000       0.14350000       0.04260000
    57  N          0.06975000       0.40805000       0.82820000
    58  N          0.93025000       0.59195000       0.32820000
    59  N          0.43025000       0.90805000       0.32820000
    60  N          0.56975000       0.09195000       0.82820000
    61  N          0.94695000       0.32024000       0.62120000
    62  N          0.05305000       0.67976000       0.12120000
    63  N          0.55305000       0.82024000       0.12120000
    64  N          0.44695000       0.17976000       0.62120000
    65  H          0.89130000       0.30250000       0.51660000
    66  H          0.10870000       0.69750000       0.01660000
    67  H          0.60870000       0.80250000       0.01660000
    68  H          0.39130000       0.19750000       0.51660000
    69  N          0.11595000       0.15525000      -0.00770000
    70  N          0.88405000       0.84475000       0.49230000
    71  N          0.38405000       0.65525000       0.49230000
    72  N          0.61595000       0.34475000      -0.00770000
    73  N          0.17765000       0.29705000       0.07020000
    74  N          0.82235000       0.70295000       0.57020000
    75  N          0.32235000       0.79705000       0.57020000
    76  N          0.67765000       0.20295000       0.07020000
    77  O          0.96496000       0.12514000       0.70520000
    78  O          0.03504000       0.87486000       0.20520000
    79  O          0.53504000       0.62514000       0.20520000
    80  O          0.46496000       0.37486000       0.70520000
    81  O          0.26414000       0.18254000       0.28130000
    82  O          0.73586000       0.81746000       0.78130000
    83  O          0.23586000       0.68254000       0.78130000
    84  O          0.76414000       0.31746000       0.28130000
