data_BAPLOT01
_symmetry_space_group_name_H-M    'P1'
_symmetry_Int_Tables_number       1
loop_
_symmetry_equiv_pos_site_id
_symmetry_equiv_pos_as_xyz
1 x,y,z
_cell_length_a                   24.6122
_cell_length_b                   3.83024
_cell_length_c                   8.50105
_cell_angle_alpha                90.0
_cell_angle_beta                 90.0
_cell_angle_gamma                90.0
loop_
_atom_site_label
_atom_site_type_symbol
_atom_site_fract_x
_atom_site_fract_y
_atom_site_fract_z
     1  N          0.90933140       0.37951300       0.72897000
     2  N          0.59066860       0.87951300       0.22897000
     3  N          0.40933140       0.12048700       0.72897000
     4  N          0.09066860       0.62048700       0.22897000
     5  C          0.91822000       0.25811500       0.57408000
     6  C          0.58178000       0.75811500       0.07408000
     7  C          0.41822000       0.24188500       0.57408000
     8  C          0.08178000       0.74188500       0.07408000
     9  N          0.87764160       0.30671200       0.46777000
    10  N          0.62235840       0.80671200       0.96777000
    11  N          0.37764160       0.19328800       0.46777000
    12  N          0.12235840       0.69328800       0.96777000
    13  C          0.82936170       0.45921300       0.51516000
    14  C          0.67063830       0.95921300       0.01516000
    15  C          0.32936170       0.04078700       0.51516000
    16  C          0.17063830       0.54078700       0.01516000
    17  C          0.82219160       0.57191400       0.66417000
    18  C          0.67780840       0.07191400       0.16417000
    19  C          0.32219160       0.92808600       0.66417000
    20  C          0.17780840       0.42808600       0.16417000
    21  C          0.86184170       0.54541400       0.78657000
    22  C          0.63815830       0.04541400       0.28657000
    23  C          0.36184170       0.95458600       0.78657000
    24  C          0.13815830       0.45458600       0.28657000
    25  N          0.76965140       0.70311200       0.66886000
    26  N          0.73034860       0.20311200       0.16886000
    27  N          0.26965140       0.79688800       0.66886000
    28  N          0.23034860       0.29688800       0.16886000
    29  C          0.74988190       0.66071600       0.52497000
    30  C          0.75011810       0.16071600       0.02497000
    31  C          0.24988190       0.83928400       0.52497000
    32  C          0.25011810       0.33928400       0.02497000
    33  N          0.78433160       0.51091300       0.42756000
    34  N          0.71566840       0.01091300       0.92756000
    35  N          0.28433160      -0.01091300       0.42756000
    36  N          0.21566840       0.48908700       0.92756000
    37  C          0.95382000       0.32320000       0.84481000
    38  C          0.54618000       0.82320000       0.34481000
    39  C          0.45382000       0.17680000       0.84481000
    40  C          0.04618000       0.67680000       0.34481000
    41  O          0.96018140       0.10451300       0.54127000
    42  O          0.53981860       0.60451300       0.04127000
    43  O          0.46018140       0.39548700       0.54127000
    44  O          0.03981860       0.89548700       0.04127000
    45  C          0.88462000       0.19131700       0.30418000
    46  C          0.61538000       0.69131700       0.80418000
    47  C          0.38462000       0.30868300       0.30418000
    48  C          0.11538000       0.80868300       0.80418000
    49  O          0.85785120       0.64111100       0.92206000
    50  O          0.64214880       0.14111100       0.42206000
    51  O          0.35785120       0.85888900       0.92206000
    52  O          0.14214880       0.35888900       0.42206000
    53  H          0.75220000       0.80017000       0.75180000
    54  H          0.74780000       0.30017000       0.25180000
    55  H          0.25220000       0.69983000       0.75180000
    56  H          0.24780000       0.19983000       0.25180000
    57  H          0.71020000       0.71715000       0.50080000
    58  H          0.78980000       0.21715000       0.00080000
    59  H          0.21020000       0.78285000       0.50080000
    60  H          0.28980000       0.28285000       0.00080000
    61  H          0.98400000       0.20800000       0.79400000
    62  H          0.51600000       0.70800000       0.29400000
    63  H          0.48400000       0.29200000       0.79400000
    64  H          0.01600000       0.79200000       0.29400000
    65  H          0.96600000       0.54300000       0.88600000
    66  H          0.53400000       0.04300000       0.38600000
    67  H          0.46600000       0.95700000       0.88600000
    68  H          0.03400000       0.45700000       0.38600000
    69  H          0.94100000       0.17900000       0.92900000
    70  H          0.55900000       0.67900000       0.42900000
    71  H          0.44100000       0.32100000       0.92900000
    72  H          0.05900000       0.82100000       0.42900000
    73  H          0.92000000       0.09400000       0.29200000
    74  H          0.58000000       0.59400000       0.79200000
    75  H          0.42000000       0.40600000       0.29200000
    76  H          0.08000000       0.90600000       0.79200000
    77  H          0.85800000       0.01900000       0.27900000
    78  H          0.64200000       0.51900000       0.77900000
    79  H          0.35800000       0.48100000       0.27900000
    80  H          0.14200000      -0.01900000       0.77900000
    81  H          0.88100000       0.38900000       0.23500000
    82  H          0.61900000       0.88900000       0.73500000
    83  H          0.38100000       0.11100000       0.23500000
    84  H          0.11900000       0.61100000       0.73500000
