data_BAPLOT08
_symmetry_space_group_name_H-M    'P1'
_symmetry_Int_Tables_number       1
loop_
_symmetry_equiv_pos_site_id
_symmetry_equiv_pos_as_xyz
1 x,y,z
_cell_length_a                   4.53107
_cell_length_b                   11.57831
_cell_length_c                   15.71882
_cell_angle_alpha                90.0
_cell_angle_beta                 93.691
_cell_angle_gamma                90.0
loop_
_atom_site_label
_atom_site_type_symbol
_atom_site_fract_x
_atom_site_fract_y
_atom_site_fract_z
     1  O          0.43834000       0.74654000       0.22347000
     2  O          0.56166000       0.24654000       0.27653000
     3  O          0.56166000       0.25346000       0.77653000
     4  O          0.43834000       0.75346000       0.72347000
     5  O          0.72449000       0.49451000       0.11029000
     6  O          0.27551000      -0.00549000       0.38971000
     7  O          0.27551000       0.50549000       0.88971000
     8  O          0.72449000       0.00549000       0.61029000
     9  N          0.21950000       0.79144000       0.09162000
    10  N          0.78050000       0.29144000       0.40838000
    11  N          0.78050000       0.20856000       0.90838000
    12  N          0.21950000       0.70856000       0.59162000
    13  N          0.08372000       0.62155000       0.16540000
    14  N          0.91628000       0.12155000       0.33460000
    15  N          0.91628000       0.37845000       0.83460000
    16  N          0.08372000       0.87845000       0.66540000
    17  N         -0.02186000       0.81343000       0.94914000
    18  N          0.02186000       0.31343000       0.55086000
    19  N          0.02186000       0.18657000       0.05086000
    20  N         -0.02186000       0.68657000       0.44914000
    21  N          0.69683000       0.65302000       0.95210000
    22  N          0.30317000       0.15302000       0.54790000
    23  N          0.30317000       0.34698000       0.04790000
    24  N          0.69683000       0.84698000       0.45210000
    25  H          0.54157000       0.59059000       0.92966000
    26  H          0.45843000       0.09059000       0.57034000
    27  H          0.45843000       0.40941000       0.07034000
    28  H          0.54157000       0.90941000       0.42966000
    29  C          0.02809000       0.75794000       0.02511000
    30  C         -0.02809000       0.25794000       0.47489000
    31  C         -0.02809000       0.24206000       0.97489000
    32  C          0.02809000       0.74206000       0.52511000
    33  C          0.85965000       0.65816000       0.02926000
    34  C          0.14035000       0.15816000       0.47074000
    35  C          0.14035000       0.34184000       0.97074000
    36  C          0.85965000       0.84184000       0.52926000
    37  C          0.25787000       0.72182000       0.16344000
    38  C          0.74213000       0.22182000       0.33656000
    39  C          0.74213000       0.27818000       0.83656000
    40  C          0.25787000       0.77818000       0.66344000
    41  C          0.87412000       0.58439000       0.10118000
    42  C          0.12588000       0.08439000       0.39882000
    43  C          0.12588000       0.41561000       0.89882000
    44  C          0.87412000       0.91561000       0.60118000
    45  C          0.13348000       0.55102000       0.24239000
    46  C          0.86652000       0.05102000       0.25761000
    47  C          0.86652000       0.44898000       0.75761000
    48  C          0.13348000       0.94898000       0.74239000
    49  H          0.10328000       0.60350000       0.29931000
    50  H          0.89672000       0.10350000       0.20069000
    51  H          0.89672000       0.39650000       0.70069000
    52  H          0.10328000       0.89650000       0.79931000
    53  H          0.35979000       0.51694000       0.24500000
    54  H          0.64021000       0.01694000       0.25500000
    55  H          0.64021000       0.48306000       0.75500000
    56  H          0.35979000       0.98306000       0.74500000
    57  H         -0.02462000       0.47948000       0.23804000
    58  H          0.02462000       0.97948000       0.26196000
    59  H          0.02462000       0.52052000       0.76196000
    60  H         -0.02462000       0.02052000       0.73804000
    61  C          0.38926000       0.89780000       0.08492000
    62  C          0.61074000       0.39780000       0.41508000
    63  C          0.61074000       0.10220000       0.91508000
    64  C          0.38926000       0.60220000       0.58492000
    65  H          0.49207000       0.89799000       0.02386000
    66  H          0.50793000       0.39799000       0.47614000
    67  H          0.50793000       0.10201000       0.97614000
    68  H          0.49207000       0.60201000       0.52386000
    69  H          0.55886000       0.90000000       0.13747000
    70  H          0.44114000       0.40000000       0.36253000
    71  H          0.44114000       0.10000000       0.86253000
    72  H          0.55886000       0.60000000       0.63747000
    73  C          0.77538000       0.74611000       0.90666000
    74  C          0.22462000       0.24611000       0.59334000
    75  C          0.22462000       0.25389000       0.09334000
    76  C          0.77538000       0.75389000       0.40666000
    77  H          0.67945000       0.76253000       0.84253000
    78  H          0.32055000       0.26253000       0.65747000
    79  H          0.32055000       0.23747000       0.15747000
    80  H          0.67945000       0.73747000       0.34253000
    81  H          0.24243000       0.97316000       0.08770000
    82  H          0.75757000       0.47316000       0.41230000
    83  H          0.75757000       0.02684000       0.91230000
    84  H          0.24243000       0.52684000       0.58770000
