data_BAQHOS
_symmetry_space_group_name_H-M    'P1'
_symmetry_Int_Tables_number       1
loop_
_symmetry_equiv_pos_site_id
_symmetry_equiv_pos_as_xyz
1 x,y,z
_cell_length_a                   12.45965
_cell_length_b                   12.15044
_cell_length_c                   13.07135
_cell_angle_alpha                90.0
_cell_angle_beta                 112.7075
_cell_angle_gamma                90.0
loop_
_atom_site_label
_atom_site_type_symbol
_atom_site_fract_x
_atom_site_fract_y
_atom_site_fract_z
     1  C          0.39944120       0.22352110       0.21562110
     2  C          0.60055880       0.72352110       0.28437890
     3  C          0.60055880       0.77647890       0.78437890
     4  C          0.39944120       0.27647890       0.71562110
     5  C          0.50333120       0.23146100       0.18121110
     6  C          0.49666880       0.73146100       0.31878890
     7  C          0.49666880       0.76853900       0.81878890
     8  C          0.50333120       0.26853900       0.68121110
     9  C          0.50854120       0.33634110       0.11851110
    10  C          0.49145880       0.83634110       0.38148890
    11  C          0.49145880       0.66365890       0.88148890
    12  C          0.50854120       0.16365890       0.61851110
    13  C          0.41966130       0.41767110       0.10003120
    14  C          0.58033870       0.91767110       0.39996880
    15  C          0.58033870       0.58232890       0.89996880
    16  C          0.41966130       0.08232890       0.60003120
    17  H          0.42240000       0.48410000       0.06280000
    18  H          0.57760000       0.98410000       0.43720000
    19  H          0.57760000       0.51590000       0.93720000
    20  H          0.42240000       0.01590000       0.56280000
    21  C          0.33282130       0.40118110       0.13457110
    22  C          0.66717870       0.90118110       0.36542890
    23  C          0.66717870       0.59881890       0.86542890
    24  C          0.33282130       0.09881890       0.63457110
    25  H          0.27510000       0.45670000       0.11990000
    26  H          0.72490000       0.95670000       0.38010000
    27  H          0.72490000       0.54330000       0.88010000
    28  H          0.27510000       0.04330000       0.61990000
    29  C          0.49720130       0.13187110       0.10609130
    30  C          0.50279870       0.63187110       0.39390870
    31  C          0.50279870       0.86812890       0.89390870
    32  C          0.49720130       0.36812890       0.60609130
    33  H          0.56600000       0.13330000       0.08590000
    34  H          0.43400000       0.63330000       0.41410000
    35  H          0.43400000       0.86670000       0.91410000
    36  H          0.56600000       0.36670000       0.58590000
    37  H          0.50130000       0.06350000       0.14870000
    38  H          0.49870000       0.56350000       0.35130000
    39  H          0.49870000       0.93650000       0.85130000
    40  H          0.50130000       0.43650000       0.64870000
    41  C          0.38866150       0.12829130       0.00099140
    42  C          0.61133850       0.62829130       0.49900860
    43  C          0.61133850       0.87170870      -0.00099140
    44  C          0.38866150       0.37170870       0.50099140
    45  H          0.32020000       0.12160000       0.02000000
    46  H          0.67980000       0.62160000       0.48000000
    47  H          0.67980000       0.87840000       0.98000000
    48  H          0.32020000       0.37840000       0.52000000
    49  H          0.39240000       0.06490000       0.95620000
    50  H          0.60760000       0.56490000       0.54380000
    51  H          0.60760000       0.93510000       0.04380000
    52  H          0.39240000       0.43510000       0.45620000
    53  H          0.38300000       0.19610000       0.95860000
    54  H          0.61700000       0.69610000       0.54140000
    55  H          0.61700000       0.80390000       0.04140000
    56  H          0.38300000       0.30390000       0.45860000
    57  C          0.61520130       0.22483120       0.28751120
    58  C          0.38479870       0.72483120       0.21248880
    59  C          0.38479870       0.77516880       0.71248880
    60  C          0.61520130       0.27516880       0.78751120
    61  H          0.61320000       0.15590000       0.32710000
    62  H          0.38680000       0.65590000       0.17290000
    63  H          0.38680000       0.84410000       0.67290000
    64  H          0.61320000       0.34410000       0.82710000
    65  H          0.68300000       0.22050000       0.26590000
    66  H          0.31700000       0.72050000       0.23410000
    67  H          0.31700000       0.77950000       0.73410000
    68  H          0.68300000       0.27950000       0.76590000
    69  C          0.63324160       0.32072150       0.36690140
    70  C          0.36675840       0.82072150       0.13309860
    71  C          0.36675840       0.67927850       0.63309860
    72  C          0.63324160       0.17927850       0.86690140
    73  H          0.64180000       0.38890000       0.33070000
    74  H          0.35820000       0.88890000       0.16930000
    75  H          0.35820000       0.61110000       0.66930000
    76  H          0.64180000       0.11110000       0.83070000
    77  H          0.70360000       0.30820000       0.43350000
    78  H          0.29640000       0.80820000       0.06650000
    79  H          0.29640000       0.69180000       0.56650000
    80  H          0.70360000       0.19180000       0.93350000
    81  H          0.56590000       0.32700000       0.38780000
    82  H          0.43410000       0.82700000       0.11220000
    83  H          0.43410000       0.67300000       0.61220000
    84  H          0.56590000       0.17300000       0.88780000
    85  N          0.32265100       0.30801900       0.19026900
    86  N          0.67734900       0.80801900       0.30973100
    87  N          0.67734900       0.69198100       0.80973100
    88  N          0.32265100       0.19198100       0.69026900
    89  O          0.38637900       0.14190800       0.26460900
    90  O          0.61362100       0.64190800       0.23539100
    91  O          0.61362100       0.85809200       0.73539100
    92  O          0.38637900       0.35809200       0.76460900
    93  H          0.26071600       0.29761300       0.20711400
    94  H          0.73928400       0.79761300       0.29288600
    95  H          0.73928400       0.70238700       0.79288600
    96  H          0.26071600       0.20238700       0.70711400
    97  O          0.58814900       0.34696800       0.08594900
    98  O          0.41185100       0.84696800       0.41405100
    99  O          0.41185100       0.65303200       0.91405100
   100  O          0.58814900       0.15303200       0.58594900
   101  C          0.10449110       0.16240100       0.28029100
   102  C          0.89550890       0.66240100       0.21970900
   103  C          0.89550890       0.83759900       0.71970900
   104  C          0.10449110       0.33759900       0.78029100
   105  C         -0.01128110       0.13766100       0.29059100
   106  C          0.01128110       0.63766100       0.20940900
   107  C          0.01128110       0.86233900       0.70940900
   108  C         -0.01128110       0.36233900       0.79059100
   109  C         -0.01473120       0.02927100       0.34989100
   110  C          0.01473120       0.52927100       0.15010900
   111  C          0.01473120       0.97072900       0.65010900
   112  C         -0.01473120       0.47072900       0.84989100
   113  C          0.08486120       0.95813900       0.38116110
   114  C          0.91513880       0.45813900       0.11883890
   115  C          0.91513880       0.04186100       0.61883890
   116  C          0.08486120       0.54186100       0.88116110
   117  H          0.08410000       0.89020000       0.41680000
   118  H          0.91590000       0.39020000       0.08320000
   119  H          0.91590000       0.10980000       0.58320000
   120  H          0.08410000       0.60980000       0.91680000
   121  C          0.17852120       0.98583900       0.36105110
   122  C          0.82147880       0.48583900       0.13894890
   123  C          0.82147880       0.01416100       0.63894890
   124  C          0.17852120       0.51416100       0.86105110
   125  H          0.24180000       0.93560000       0.38170000
   126  H          0.75820000       0.43560000       0.11830000
   127  H          0.75820000       0.06440000       0.61830000
   128  H          0.24180000       0.56440000       0.88170000
   129  C          0.96171880       0.23347100       0.35376110
   130  C          0.03828120       0.73347100       0.14623890
   131  C          0.03828120       0.76652900       0.64623890
   132  C          0.96171880       0.26652900       0.85376110
   133  H          0.95330000       0.30190000       0.31030000
   134  H          0.04670000       0.80190000       0.18970000
   135  H          0.04670000       0.69810000       0.68970000
   136  H          0.95330000       0.19810000       0.81030000
   137  H          0.88650000       0.21910000       0.36040000
   138  H          0.11350000       0.71910000       0.13960000
   139  H          0.11350000       0.78090000       0.63960000
   140  H          0.88650000       0.28090000       0.86040000
   141  C          0.05491130       0.25073110       0.46895110
   142  C          0.94508870       0.75073110       0.03104890
   143  C          0.94508870       0.74926890       0.53104890
   144  C          0.05491130       0.24926890       0.96895110
   145  H          0.06310000       0.18360000       0.51300000
   146  H          0.93690000       0.68360000       0.98700000
   147  H          0.93690000       0.81640000       0.48700000
   148  H          0.06310000       0.31640000       0.01300000
   149  H          0.03260000       0.31210000       0.50520000
   150  H          0.96740000       0.81210000      -0.00520000
   151  H          0.96740000       0.68790000       0.49480000
   152  H          0.03260000       0.18790000       0.00520000
   153  H          0.12920000       0.26760000       0.46290000
   154  H          0.87080000       0.76760000       0.03710000
   155  H          0.87080000       0.73240000       0.53710000
   156  H          0.12920000       0.23240000       0.96290000
   157  C          0.89456880       0.12990110       0.17160110
   158  C          0.10543120       0.62990110       0.32839890
   159  C          0.10543120       0.87009890       0.82839890
   160  C          0.89456880       0.37009890       0.67160110
   161  H          0.81720000       0.12640000       0.17620000
   162  H          0.18280000       0.62640000       0.32380000
   163  H          0.18280000       0.87360000       0.82380000
   164  H          0.81720000       0.37360000       0.67620000
   165  H          0.89710000       0.19790000       0.13090000
   166  H          0.10290000       0.69790000       0.36910000
   167  H          0.10290000       0.80210000       0.86910000
   168  H          0.89710000       0.30210000       0.63090000
   169  C          0.90750860       0.03134110       0.10549120
   170  C          0.09249140       0.53134110       0.39450880
   171  C          0.09249140       0.96865890       0.89450880
   172  C          0.90750860       0.46865890       0.60549120
   173  H         -0.01440000       0.03140000       0.10420000
   174  H          0.01440000       0.53140000       0.39580000
   175  H          0.01440000       0.96860000       0.89580000
   176  H         -0.01440000       0.46860000       0.60420000
   177  H          0.84930000       0.03580000       0.02950000
   178  H          0.15070000       0.53580000       0.47050000
   179  H          0.15070000       0.96420000       0.97050000
   180  H          0.84930000       0.46420000       0.52950000
   181  H          0.89600000       0.96330000       0.14030000
   182  H          0.10400000       0.46330000       0.35970000
   183  H          0.10400000       0.03670000       0.85970000
   184  H          0.89600000       0.53670000       0.64030000
   185  N          0.18807100       0.08373900       0.31178900
   186  N          0.81192900       0.58373900       0.18821100
   187  N          0.81192900       0.91626100       0.68821100
   188  N          0.18807100       0.41626100       0.81178900
   189  O          0.12037900       0.25076700       0.24293800
   190  O          0.87962100       0.75076700       0.25706200
   191  O          0.87962100       0.74923300       0.75706200
   192  O          0.12037900       0.24923300       0.74293800
   193  H          0.24861500       0.09941200       0.30211300
   194  H          0.75138500       0.59941200       0.19788700
   195  H          0.75138500       0.90058800       0.69788700
   196  H          0.24861500       0.40058800       0.80211300
   197  O          0.89744100       0.00696700       0.36618800
   198  O          0.10255900       0.50696700       0.13381200
   199  O          0.10255900      -0.00696700       0.63381200
   200  O          0.89744100       0.49303300       0.86618800
