data_BAQHOS02
_symmetry_space_group_name_H-M    'P1'
_symmetry_Int_Tables_number       1
loop_
_symmetry_equiv_pos_site_id
_symmetry_equiv_pos_as_xyz
1 x,y,z
_cell_length_a                   11.64922
_cell_length_b                   11.64922
_cell_length_c                   6.75112
_cell_angle_alpha                90.0
_cell_angle_beta                 90.0
_cell_angle_gamma                90.0
loop_
_atom_site_label
_atom_site_type_symbol
_atom_site_fract_x
_atom_site_fract_y
_atom_site_fract_z
     1  C          0.31004130       0.18996130       0.55453000
     2  C          0.18996130       0.68995870       0.44547000
     3  C          0.68995870       0.81003870       0.55453000
     4  C          0.81003870       0.31004130       0.44547000
     5  C          0.30196130       0.19804130       0.78033000
     6  C          0.19804130       0.69803870       0.21967000
     7  C          0.69803870       0.80195870       0.78033000
     8  C          0.80195870       0.30196130       0.21967000
     9  C          0.21507140       0.28493140       0.85943000
    10  C          0.28493140       0.78492860       0.14057000
    11  C          0.78492860       0.71506860       0.85943000
    12  C          0.71506860       0.21507140       0.14057000
    13  C          0.14931150       0.35069150       0.72094000
    14  C          0.35069150       0.85068850       0.27906000
    15  C          0.85068850       0.64930850       0.72094000
    16  C          0.64930850       0.14931150       0.27906000
    17  H          0.09490000       0.40510000       0.76790000
    18  H          0.40510000       0.90510000       0.23210000
    19  H          0.90510000       0.59490000       0.76790000
    20  H          0.59490000       0.09490000       0.23210000
    21  C          0.16360150       0.33640150       0.52744000
    22  C          0.33640150       0.83639850       0.47256000
    23  C          0.83639850       0.66359850       0.52744000
    24  C          0.66359850       0.16360150       0.47256000
    25  H          0.11830000       0.38170000       0.44030000
    26  H          0.38170000       0.88170000       0.55970000
    27  H          0.88170000       0.61830000       0.44030000
    28  H          0.61830000       0.11830000       0.55970000
    29  C          0.42218130       0.23157140       0.85703000
    30  C          0.23157140       0.57781870       0.14297000
    31  C          0.57781870       0.76842860       0.85703000
    32  C          0.76842860       0.42218130       0.14297000
    33  C          0.92218130       0.26842860       0.14297000
    34  C          0.26842860       0.07781870       0.85703000
    35  C          0.07781870       0.73157140       0.14297000
    36  C          0.73157140       0.92218130       0.85703000
    37  H          0.41950000       0.23710000       0.00330000
    38  H          0.23710000       0.58050000      -0.00330000
    39  H          0.58050000       0.76290000       0.00330000
    40  H          0.76290000       0.41950000      -0.00330000
    41  H          0.91950000       0.26290000      -0.00330000
    42  H          0.26290000       0.08050000       0.00330000
    43  H          0.08050000       0.73710000      -0.00330000
    44  H          0.73710000       0.91950000       0.00330000
    45  H          0.47700000       0.16990000       0.82220000
    46  H          0.16990000       0.52300000       0.17780000
    47  H          0.52300000       0.83010000       0.82220000
    48  H          0.83010000       0.47700000       0.17780000
    49  H          0.97700000       0.33010000       0.17780000
    50  H          0.33010000       0.02300000       0.82220000
    51  H          0.02300000       0.66990000       0.17780000
    52  H          0.66990000       0.97700000       0.82220000
    53  C          0.46627150       0.34458170       0.77383000
    54  C          0.34458170       0.53372850       0.22617000
    55  C          0.53372850       0.65541830       0.77383000
    56  C          0.65541830       0.46627150       0.22617000
    57  C          0.96627150       0.15541830       0.22617000
    58  C          0.15541830       0.03372850       0.77383000
    59  C          0.03372850       0.84458170       0.22617000
    60  C          0.84458170       0.96627150       0.77383000
    61  H          0.47130000       0.33920000       0.62920000
    62  H          0.33920000       0.52870000       0.37080000
    63  H          0.52870000       0.66080000       0.62920000
    64  H          0.66080000       0.47130000       0.37080000
    65  H          0.97130000       0.16080000       0.37080000
    66  H          0.16080000       0.02870000       0.62920000
    67  H          0.02870000       0.83920000       0.37080000
    68  H          0.83920000       0.97130000       0.62920000
    69  H          0.54250000       0.36080000       0.82850000
    70  H          0.36080000       0.45750000       0.17150000
    71  H          0.45750000       0.63920000       0.82850000
    72  H          0.63920000       0.54250000       0.17150000
    73  H          0.04250000       0.13920000       0.17150000
    74  H          0.13920000       0.95750000       0.82850000
    75  H          0.95750000       0.86080000       0.17150000
    76  H          0.86080000       0.04250000       0.82850000
    77  H          0.41340000       0.40660000       0.81010000
    78  H          0.40660000       0.58660000       0.18990000
    79  H          0.58660000       0.59340000       0.81010000
    80  H          0.59340000       0.41340000       0.18990000
    81  H          0.91340000       0.09340000       0.18990000
    82  H          0.09340000       0.08660000       0.81010000
    83  H          0.08660000       0.90660000       0.18990000
    84  H          0.90660000       0.91340000       0.81010000
    85  N          0.23991140       0.26009140       0.44543000
    86  N          0.26009140       0.76008860       0.55457000
    87  N          0.76008860       0.73990860       0.44543000
    88  N          0.73990860       0.23991140       0.55457000
    89  H          0.24311700       0.25691700       0.29750000
    90  H          0.25691700       0.75688300       0.70250000
    91  H          0.75688300       0.74308300       0.29750000
    92  H          0.74308300       0.24311700       0.70250000
    93  O          0.37608110       0.12392110       0.47383000
    94  O          0.12392110       0.62391890       0.52617000
    95  O          0.62391890       0.87607890       0.47383000
    96  O          0.87607890       0.37608110       0.52617000
    97  O          0.20384100       0.29616100       0.03972000
    98  O          0.29616100       0.79615900       0.96028000
    99  O          0.79615900       0.70383900       0.03972000
   100  O          0.70383900       0.20384100       0.96028000
