data_BAQHOS01
_symmetry_space_group_name_H-M    'P1'
_symmetry_Int_Tables_number       1
loop_
_symmetry_equiv_pos_site_id
_symmetry_equiv_pos_as_xyz
1 x,y,z
_cell_length_a                   6.61732
_cell_length_b                   10.42643
_cell_length_c                   13.22304
_cell_angle_alpha                90.0
_cell_angle_beta                 99.3523
_cell_angle_gamma                90.0
loop_
_atom_site_label
_atom_site_type_symbol
_atom_site_fract_x
_atom_site_fract_y
_atom_site_fract_z
     1  C          0.09088190       0.15636120       0.42431900
     2  C          0.90911810       0.65636120       0.07568100
     3  C          0.90911810       0.84363880       0.57568100
     4  C          0.09088190       0.34363880       0.92431900
     5  C          0.15386190       0.27450120       0.36857900
     6  C          0.84613810       0.77450120       0.13142100
     7  C          0.84613810       0.72549880       0.63142100
     8  C          0.15386190       0.22549880       0.86857900
     9  C          0.34092000       0.25630130       0.31497100
    10  C          0.65908000       0.75630130       0.18502900
    11  C          0.65908000       0.74369870       0.68502900
    12  C          0.34092000       0.24369870       0.81497100
    13  C          0.43592000       0.13141140       0.31978100
    14  C          0.56408000       0.63141140       0.18021900
    15  C          0.56408000       0.86858860       0.68021900
    16  C          0.43592000       0.36858860       0.81978100
    17  H          0.55080000       0.11750000       0.28640000
    18  H          0.44920000       0.61750000       0.21360000
    19  H          0.44920000       0.88250000       0.71360000
    20  H          0.55080000       0.38250000       0.78640000
    21  C          0.36482000       0.03505140       0.37049100
    22  C          0.63518000       0.53505140       0.12950900
    23  C          0.63518000       0.96494860       0.62950900
    24  C          0.36482000       0.46494860       0.87049100
    25  H          0.43090000       0.95410000       0.37100000
    26  H          0.56910000       0.45410000       0.12900000
    27  H          0.56910000       0.04590000       0.62900000
    28  H          0.43090000       0.54590000       0.87100000
    29  C          0.19952000       0.38287130       0.44829100
    30  C          0.80048000       0.88287130       0.05170900
    31  C          0.80048000       0.61712870       0.55170900
    32  C          0.19952000       0.11712870       0.94829100
    33  H          0.22950000       0.46250000       0.41270000
    34  H          0.77050000       0.96250000       0.08730000
    35  H          0.77050000       0.53750000       0.58730000
    36  H          0.22950000       0.03750000       0.91270000
    37  H          0.07540000       0.39850000       0.47940000
    38  H          0.92460000       0.89850000       0.02060000
    39  H          0.92460000       0.60150000       0.52060000
    40  H          0.07540000       0.10150000       0.97940000
    41  C          0.37843000       0.35453160       0.53350110
    42  C          0.62157000       0.85453160       0.96649890
    43  C          0.62157000       0.64546840       0.46649890
    44  C          0.37843000       0.14546840       0.03350110
    45  H          0.34920000       0.27670000       0.57010000
    46  H          0.65080000       0.77670000       0.92990000
    47  H          0.65080000       0.72330000       0.42990000
    48  H          0.34920000       0.22330000       0.07010000
    49  H          0.39780000       0.42680000       0.58150000
    50  H          0.60220000       0.92680000       0.91850000
    51  H          0.60220000       0.57320000       0.41850000
    52  H          0.39780000       0.07320000       0.08150000
    53  H          0.50320000       0.34190000       0.50370000
    54  H          0.49680000       0.84190000      -0.00370000
    55  H          0.49680000       0.65810000       0.49630000
    56  H          0.50320000       0.15810000       0.00370000
    57  C          0.96958000       0.31178130       0.28630100
    58  C          0.03042000       0.81178130       0.21369900
    59  C          0.03042000       0.68821870       0.71369900
    60  C          0.96958000       0.18821870       0.78630100
    61  H          0.84980000       0.32880000       0.32040000
    62  H          0.15020000       0.82880000       0.17960000
    63  H          0.15020000       0.67120000       0.67960000
    64  H          0.84980000       0.17120000       0.82040000
    65  H          0.00260000       0.39220000       0.25270000
    66  H         -0.00260000       0.89220000       0.24730000
    67  H         -0.00260000       0.60780000       0.74730000
    68  H          0.00260000       0.10780000       0.75270000
    69  C          0.91198000       0.20963150       0.20458110
    70  C          0.08802000       0.70963150       0.29541890
    71  C          0.08802000       0.79036850       0.79541890
    72  C          0.91198000       0.29036850       0.70458110
    73  H          0.02690000       0.19580000       0.16750000
    74  H          0.97310000       0.69580000       0.33250000
    75  H          0.97310000       0.80420000       0.83250000
    76  H          0.02690000       0.30420000       0.66750000
    77  H          0.79180000       0.23800000       0.15650000
    78  H          0.20820000       0.73800000       0.34350000
    79  H          0.20820000       0.76200000       0.84350000
    80  H          0.79180000       0.26200000       0.65650000
    81  H          0.88020000       0.12930000       0.23710000
    82  H          0.11980000       0.62930000       0.26290000
    83  H          0.11980000       0.87070000       0.76290000
    84  H          0.88020000       0.37070000       0.73710000
    85  N          0.20062170       0.04664110       0.42219800
    86  N          0.79937830       0.54664110       0.07780200
    87  N          0.79937830       0.95335890       0.57780200
    88  N          0.20062170       0.45335890       0.92219800
    89  H          0.15920000       0.98288500       0.45361100
    90  H          0.84080000       0.48288500       0.04638900
    91  H          0.84080000       0.01711500       0.54638900
    92  H          0.15920000       0.51711500       0.95361100
    93  O          0.94380850       0.16100900       0.46996700
    94  O          0.05619150       0.66100900       0.03003300
    95  O          0.05619150       0.83899100       0.53003300
    96  O          0.94380850       0.33899100       0.96996700
    97  O          0.40103170       0.34709100       0.26937800
    98  O          0.59896830       0.84709100       0.23062200
    99  O          0.59896830       0.65290900       0.73062200
   100  O          0.40103170       0.15290900       0.76937800
