data_BARWEA01
_symmetry_space_group_name_H-M    'P1'
_symmetry_Int_Tables_number       1
loop_
_symmetry_equiv_pos_site_id
_symmetry_equiv_pos_as_xyz
1 x,y,z
_cell_length_a                   17.6623
_cell_length_b                   7.1582
_cell_length_c                   17.0512
_cell_angle_alpha                90.0
_cell_angle_beta                 114.252
_cell_angle_gamma                90.0
loop_
_atom_site_label
_atom_site_type_symbol
_atom_site_fract_x
_atom_site_fract_y
_atom_site_fract_z
     1  S          0.74148200       0.18082600       0.66987300
     2  S          0.25851800       0.68082600       0.83012700
     3  S          0.25851800       0.81917400       0.33012700
     4  S          0.74148200       0.31917400       0.16987300
     5  C          0.68851900       0.58932000       0.59402900
     6  C          0.31148100       0.08932000       0.90597100
     7  C          0.31148100       0.41068000       0.40597100
     8  C          0.68851900       0.91068000       0.09402900
     9  P          0.76795200       0.44653600       0.67302300
    10  P          0.23204800       0.94653600       0.82697700
    11  P          0.23204800       0.55346400       0.32697700
    12  P          0.76795200       0.05346400       0.17302300
    13  C          0.70343900       0.65592000       0.52643100
    14  C          0.29656100       0.15592000       0.97356900
    15  C          0.29656100       0.34408000       0.47356900
    16  C          0.70343900       0.84408000       0.02643100
    17  H          0.75633100       0.63504000       0.52588500
    18  H          0.24366900       0.13504000       0.97411500
    19  H          0.24366900       0.36496000       0.47411500
    20  H          0.75633100       0.86496000       0.02588500
    21  C          0.64271100       0.75462000       0.45744100
    22  C          0.35728900       0.25462000       0.04255900
    23  C          0.35728900       0.24538000       0.54255900
    24  C          0.64271100       0.74538000       0.95744100
    25  H          0.65490400       0.79871000       0.41136500
    26  H          0.34509600       0.29871000       0.08863500
    27  H          0.34509600       0.20129000       0.58863500
    28  H          0.65490400       0.70129000       0.91136500
    29  C          0.56716100       0.78592000       0.45732100
    30  C          0.43283900       0.28592000       0.04267900
    31  C          0.43283900       0.21408000       0.54267900
    32  C          0.56716100       0.71408000       0.95732100
    33  H          0.52636800       0.85139000       0.41055000
    34  H          0.47363200       0.35139000       0.08945000
    35  H          0.47363200       0.14861000       0.58945000
    36  H          0.52636800       0.64861000       0.91055000
    37  C          0.54758900       0.72262000       0.52612900
    38  C          0.45241100       0.22262000       0.97387100
    39  C          0.45241100       0.27738000       0.47387100
    40  C          0.54758900       0.77738000       0.02612900
    41  C          0.36993900       0.73592000       0.59242100
    42  C          0.63006100       0.23592000       0.90757900
    43  C          0.63006100       0.26408000       0.40757900
    44  C          0.36993900       0.76408000       0.09242100
    45  H          0.32953700       0.80406100       0.54641700
    46  H          0.67046300       0.30406100       0.95358300
    47  H          0.67046300       0.19593900       0.45358300
    48  H          0.32953700       0.69593900       0.04641700
    49  C          0.46953900       0.75682000       0.52511100
    50  C          0.53046100       0.25682000       0.97488900
    51  C          0.53046100       0.24318000       0.47488900
    52  C          0.46953900       0.74318000       0.02511100
    53  H          0.42943500       0.82278700       0.47799000
    54  H          0.57056500       0.32278700       0.02201000
    55  H          0.57056500       0.17721300       0.52201000
    56  H          0.42943500       0.67721300       0.97799000
    57  C          0.35228100       0.67642000       0.65872110
    58  C          0.64771900       0.17642000       0.84127890
    59  C          0.64771900       0.32358000       0.34127890
    60  C          0.35228100       0.82358000       0.15872110
    61  H          0.29990000       0.70519000       0.65904300
    62  H          0.70010000       0.20519000       0.84095700
    63  H          0.70010000       0.29481000       0.34095700
    64  H          0.29990000       0.79481000       0.15904300
    65  C          0.44887900       0.69672000       0.59148100
    66  C          0.55112100       0.19672000       0.90851900
    67  C          0.55112100       0.30328000       0.40851900
    68  C          0.44887900       0.80328000       0.09148100
    69  C          0.41113900       0.57172000       0.72756100
    70  C          0.58886100       0.07172000       0.77243900
    71  C          0.58886100       0.42828000       0.27243900
    72  C          0.41113900       0.92828000       0.22756100
    73  H          0.39746700       0.52927900       0.77294100
    74  H          0.60253300       0.02927900       0.72705900
    75  H          0.60253300       0.47072100       0.22705900
    76  H          0.39746700       0.97072100       0.27294100
    77  C          0.48692900       0.53172000       0.72887100
    78  C          0.51307100       0.03172000       0.77112900
    79  C          0.51307100       0.46828000       0.27112900
    80  C          0.48692900       0.96828000       0.22887100
    81  H          0.52570000       0.46126100       0.77519000
    82  H          0.47430000       0.96126100       0.72481000
    83  H          0.47430000       0.53873900       0.22481000
    84  H          0.52570000       0.03873900       0.27519000
    85  C          0.50892900       0.59422000       0.66148100
    86  C          0.49107100       0.09422000       0.83851900
    87  C          0.49107100       0.40578000       0.33851900
    88  C          0.50892900       0.90578000       0.16148100
    89  C          0.77772900       0.73792000       0.78735100
    90  C          0.22227100       0.23792000       0.71264900
    91  C          0.22227100       0.26208000       0.21264900
    92  C          0.77772900       0.76208000       0.28735100
    93  H          0.74642600       0.81082000       0.73807300
    94  H          0.25357400       0.31082000       0.76192700
    95  H          0.25357400       0.18918000       0.26192700
    96  H          0.74642600       0.68918000       0.23807300
    97  C          0.83974100       0.44553000       0.85088110
    98  C          0.16025900       0.94553000       0.64911890
    99  C          0.16025900       0.55447000       0.14911890
   100  C          0.83974100       0.05447000       0.35088110
   101  H          0.85063100       0.31735900       0.84517800
   102  H          0.14936900       0.81735900       0.65482200
   103  H          0.14936900       0.68264100       0.15482200
   104  H          0.85063100       0.18264100       0.34517800
   105  C          0.58701900       0.55692000       0.66204100
   106  C          0.41298100       0.05692000       0.83795900
   107  C          0.41298100       0.44308000       0.33795900
   108  C          0.58701900       0.94308000       0.16204100
   109  H          0.62622900       0.48676200       0.70814100
   110  H          0.37377100      -0.01323800       0.79185900
   111  H          0.37377100       0.51323800       0.29185900
   112  H          0.62622900       0.01323800       0.20814100
   113  C          0.60866900       0.62032000       0.59636100
   114  C          0.39133100       0.12032000       0.90363900
   115  C          0.39133100       0.37968000       0.40363900
   116  C          0.60866900       0.87968000       0.09636100
   117  C          0.85214100       0.71253000       0.94051110
   118  C          0.14785900       0.21253000       0.55948890
   119  C          0.14785900       0.28747000       0.05948890
   120  C          0.85214100       0.78747000       0.44051110
   121  H          0.87256500       0.76818300      -0.00405700
   122  H          0.12743500       0.26818300       0.50405700
   123  H          0.12743500       0.23181700       0.00405700
   124  H          0.87256500       0.73181700       0.49594300
   125  C          0.79499900       0.55162000       0.77799100
   126  C          0.20500100       0.05162000       0.72200900
   127  C          0.20500100       0.44838000       0.22200900
   128  C          0.79499900       0.94838000       0.27799100
   129  C          0.80624100       0.81713000       0.86872110
   130  C          0.19375900       0.31713000       0.63127890
   131  C          0.19375900       0.18287000       0.13127890
   132  C          0.80624100       0.68287000       0.36872110
   133  H          0.79408300       0.94407400       0.87498700
   134  H          0.20591700       0.44407400       0.62501300
   135  H          0.20591700       0.05592600       0.12501300
   136  H          0.79408300       0.55592600       0.37498700
   137  C          0.86842110       0.52673000       0.93184110
   138  C          0.13157890       0.02673000       0.56815890
   139  C          0.13157890       0.47327000       0.06815890
   140  C          0.86842110       0.97327000       0.43184110
   141  H          0.89935100       0.45438600       0.98144100
   142  H          0.10064900       0.95438600       0.51855900
   143  H          0.10064900       0.54561400       0.01855900
   144  H          0.89935100       0.04561400       0.48144100
   145  C          0.86189900       0.48662000       0.65556900
   146  C          0.13810100      -0.01338000       0.84443100
   147  C          0.13810100       0.51338000       0.34443100
   148  C          0.86189900       0.01338000       0.15556900
   149  C          0.89194100       0.34702000       0.61959110
   150  C          0.10805900       0.84702000       0.88040890
   151  C          0.10805900       0.65298000       0.38040890
   152  C          0.89194100       0.15298000       0.11959110
   153  H          0.86208800       0.23322500       0.60143300
   154  H          0.13791200       0.73322500       0.89856700
   155  H          0.13791200       0.76677500       0.39856700
   156  H          0.86208800       0.26677500       0.10143300
   157  C          0.96549110       0.37333000       0.61012130
   158  C          0.03450890       0.87333000       0.88987870
   159  C          0.03450890       0.62667000       0.38987870
   160  C          0.96549110       0.12667000       0.11012130
   161  H          0.98586700       0.27742400       0.58540600
   162  H          0.01413300       0.77742400       0.91459400
   163  H          0.01413300       0.72257600       0.41459400
   164  H          0.98586700       0.22257600       0.08540600
   165  C          0.00921100       0.53783000       0.63640120
   166  C         -0.00921100       0.03783000       0.86359880
   167  C         -0.00921100       0.46217000       0.36359880
   168  C          0.00921100       0.96217000       0.13640120
   169  H          0.05987800       0.55461400       0.63029300
   170  H          0.94012200       0.05461400       0.86970700
   171  H          0.94012200       0.44538600       0.36970700
   172  H          0.05987800       0.94538600       0.13029300
   173  C          0.97940100       0.67843000       0.67162110
   174  C          0.02059900       0.17843000       0.82837890
   175  C          0.02059900       0.32157000       0.32837890
   176  C          0.97940100       0.82157000       0.17162110
   177  H          0.00927600       0.79225200       0.68924900
   178  H         -0.00927600       0.29225200       0.81075100
   179  H         -0.00927600       0.20774800       0.31075100
   180  H          0.00927600       0.70774800       0.18924900
   181  C          0.90594100       0.65312000       0.68116100
   182  C          0.09405900       0.15312000       0.81883900
   183  C          0.09405900       0.34688000       0.31883900
   184  C          0.90594100       0.84688000       0.18116100
   185  H          0.88548300       0.74986300       0.70531600
   186  H          0.11451700       0.24986300       0.79468400
   187  H          0.11451700       0.25013700       0.29468400
   188  H          0.88548300       0.75013700       0.20531600
