data_BARWEA02
_symmetry_space_group_name_H-M    'P1'
_symmetry_Int_Tables_number       1
loop_
_symmetry_equiv_pos_site_id
_symmetry_equiv_pos_as_xyz
1 x,y,z
_cell_length_a                   13.9672
_cell_length_b                   8.8922
_cell_length_c                   17.2013
_cell_angle_alpha                90.0
_cell_angle_beta                 110.464
_cell_angle_gamma                90.0
loop_
_atom_site_label
_atom_site_type_symbol
_atom_site_fract_x
_atom_site_fract_y
_atom_site_fract_z
     1  P          0.21068300       0.27935500       0.44926300
     2  P          0.78931700       0.77935500       0.05073700
     3  P          0.78931700       0.72064500       0.55073700
     4  P          0.21068300       0.22064500       0.94926300
     5  C          0.34911120       0.28435180       0.48436100
     6  C          0.65088880       0.78435180       0.01563900
     7  C          0.65088880       0.71564820       0.51563900
     8  C          0.34911120       0.21564820       0.98436100
     9  S          0.15477300       0.08197500       0.46053300
    10  S          0.84522700       0.58197500       0.03946700
    11  S          0.84522700       0.91802500       0.53946700
    12  S          0.15477300       0.41802500       0.96053300
    13  C          0.40390120       0.19618180       0.44278100
    14  C          0.59609880       0.69618180       0.05721900
    15  C          0.59609880       0.80381820       0.55721900
    16  C          0.40390120       0.30381820       0.94278100
    17  C          0.40195130       0.36377190       0.55464100
    18  C          0.59804870       0.86377190       0.94535900
    19  C          0.59804870       0.63622810       0.44535900
    20  C          0.40195130       0.13622810       0.05464100
    21  H          0.36518100       0.42183400       0.58117400
    22  H          0.63481900       0.92183400       0.91882600
    23  H          0.63481900       0.57816600       0.41882600
    24  H          0.36518100       0.07816600       0.08117400
    25  C          0.51039130       0.36118190       0.58865100
    26  C          0.48960870       0.86118190       0.91134900
    27  C          0.48960870       0.63881810       0.41134900
    28  C          0.51039130       0.13881810       0.08865100
    29  H          0.54531500       0.41647500       0.63763700
    30  H          0.45468500       0.91647500       0.86236300
    31  H          0.45468500       0.58352500       0.36236300
    32  H          0.54531500       0.08352500       0.13763700
    33  C          0.56398130       0.27994190       0.55127100
    34  C          0.43601870       0.77994190       0.94872900
    35  C          0.43601870       0.72005810       0.44872900
    36  C          0.56398130       0.22005810       0.05127100
    37  H          0.63647600       0.27870600       0.57469400
    38  H          0.36352400       0.77870600       0.92530600
    39  H          0.36352400       0.72129400       0.42530600
    40  H          0.63647600       0.22129400       0.07469400
    41  C          0.52199130       0.02829190       0.36778100
    42  C          0.47800870       0.52829190       0.13221900
    43  C          0.47800870       0.97170810       0.63221900
    44  C          0.52199130       0.47170810       0.86778100
    45  C          0.35619130       0.11006190       0.37161100
    46  C          0.64380870       0.61006190       0.12838900
    47  C          0.64380870       0.88993810       0.62838900
    48  C          0.35619130       0.38993810       0.87161100
    49  H          0.28367000       0.10752400       0.34887100
    50  H          0.71633000       0.60752400       0.15112900
    51  H          0.71633000       0.89247600       0.65112900
    52  H          0.28367000       0.39247600       0.84887100
    53  C          0.56989130       0.11168190       0.43970100
    54  C          0.43010870       0.61168190       0.06029900
    55  C          0.43010870       0.88831810       0.56029900
    56  C          0.56989130       0.38831810       0.93970100
    57  H          0.64235100       0.11101900       0.46359200
    58  H          0.35764900       0.61101900       0.03640800
    59  H          0.35764900       0.88898100       0.53640800
    60  H          0.64235100       0.38898100       0.96359200
    61  C          0.36378140       0.94298000       0.25938110
    62  C          0.63621860       0.44298000       0.24061890
    63  C          0.63621860       0.05702000       0.74061890
    64  C          0.36378140       0.55702000       0.75938110
    65  H          0.29130200       0.94088000       0.23590000
    66  H          0.70869800       0.44088000       0.26410000
    67  H          0.70869800       0.05912000       0.76410000
    68  H          0.29130200       0.55912000       0.73590000
    69  C          0.51386120       0.19595180       0.47730100
    70  C          0.48613880       0.69595180       0.02269900
    71  C          0.48613880       0.80404820       0.52269900
    72  C          0.51386120       0.30404820       0.97730100
    73  C          0.41970150       0.86528000       0.22223110
    74  C          0.58029850       0.36528000       0.27776890
    75  C          0.58029850       0.13472000       0.77776890
    76  C          0.41970150       0.63472000       0.72223110
    77  H          0.38595900       0.81008300       0.17294400
    78  H          0.61404100       0.31008300       0.32705600
    79  H          0.61404100       0.18991700       0.82705600
    80  H          0.38595900       0.68991700       0.67294400
    81  C          0.57796140       0.94418000       0.32721110
    82  C          0.42203860       0.44418000       0.17278890
    83  C          0.42203860       0.05582000       0.67278890
    84  C          0.57796140       0.55582000       0.82721110
    85  H          0.65050800       0.94294400       0.34970700
    86  H          0.34949200       0.44294400       0.15029300
    87  H          0.34949200       0.05705600       0.65029300
    88  H          0.65050800       0.55705600       0.84970700
    89  C          0.52818150       0.86578000       0.25640110
    90  C          0.47181850       0.36578000       0.24359890
    91  C          0.47181850       0.13422000       0.74359890
    92  C          0.52818150       0.63422000       0.75640110
    93  H          0.56635600       0.81104600       0.22973700
    94  H          0.43364400       0.31104600       0.27026300
    95  H          0.43364400       0.18895400       0.77026300
    96  H          0.56635600       0.68895400       0.72973700
    97  C          0.41225130       0.02774190       0.33309100
    98  C          0.58774870       0.52774190       0.16690900
    99  C          0.58774870       0.97225810       0.66690900
   100  C          0.41225130       0.47225810       0.83309100
   101  C          0.09635140       0.46012000       0.18160110
   102  C          0.90364860       0.96012000       0.31839890
   103  C          0.90364860       0.53988000       0.81839890
   104  C          0.09635140       0.03988000       0.68160110
   105  H          0.07173300       0.49896200       0.12670100
   106  H          0.92826700      -0.00103800       0.37329900
   107  H          0.92826700       0.50103800       0.87329900
   108  H          0.07173300       0.00103800       0.62670100
   109  C          0.22537130       0.45092000       0.31734110
   110  C          0.77462870       0.95092000       0.18265890
   111  C          0.77462870       0.54908000       0.68265890
   112  C          0.22537130       0.04908000       0.81734110
   113  H          0.28957700       0.48324300       0.35521100
   114  H          0.71042300       0.98324300       0.14478900
   115  H          0.71042300       0.51675700       0.64478900
   116  H          0.28957700       0.01675700       0.85521100
   117  C          0.19009140       0.50652000       0.23669110
   118  C          0.80990860       0.00652000       0.26330890
   119  C          0.80990860       0.49348000       0.76330890
   120  C          0.19009140      -0.00652000       0.73669110
   121  H          0.23024700       0.57612900       0.21944400
   122  H          0.76975300       0.07612900       0.28055600
   123  H          0.76975300       0.42387100       0.78055600
   124  H          0.23024700       0.92387100       0.71944400
   125  C          0.03822140       0.35682000       0.20643110
   126  C          0.96177860       0.85682000       0.29356890
   127  C          0.96177860       0.64318000       0.79356890
   128  C          0.03822140       0.14318000       0.70643110
   129  H          0.97402400       0.32494700       0.16837100
   130  H          0.02597600       0.82494700       0.33162900
   131  H          0.02597600       0.67505300       0.83162900
   132  H          0.97402400       0.17505300       0.66837100
   133  C          0.07348130       0.30002000       0.28656110
   134  C          0.92651870       0.80002000       0.21343890
   135  C          0.92651870       0.69998000       0.71343890
   136  C          0.07348130       0.19998000       0.78656110
   137  H          0.03394100       0.22823900       0.30309100
   138  H          0.96605900       0.72823900       0.19690900
   139  H          0.96605900       0.77176100       0.69690900
   140  H          0.03394100       0.27176100       0.80309100
   141  C          0.17251120       0.42453190       0.50719100
   142  C          0.82748880       0.92453190      -0.00719100
   143  C          0.82748880       0.57546810       0.49280900
   144  C          0.17251120       0.07546810       0.00719100
   145  C          0.18269130       0.57722000       0.49238120
   146  C          0.81730870       0.07722000       0.00761880
   147  C          0.81730870       0.42278000       0.50761880
   148  C          0.18269130       0.92278000      -0.00761880
   149  H          0.21176400       0.60686100       0.45240900
   150  H          0.78823600       0.10686100       0.04759100
   151  H          0.78823600       0.39313900       0.54759100
   152  H          0.21176400       0.89313900       0.95240900
   153  C          0.15055140       0.68522000       0.53575120
   154  C          0.84944860       0.18522000       0.96424880
   155  C          0.84944860       0.31478000       0.46424880
   156  C          0.15055140       0.81478000       0.03575120
   157  H          0.15830500       0.78892100       0.52598100
   158  H          0.84169500       0.28892100       0.97401900
   159  H          0.84169500       0.21107900       0.47401900
   160  H          0.15830500       0.71107900       0.02598100
   161  C          0.10692130       0.64212000       0.59358120
   162  C          0.89307870       0.14212000       0.90641880
   163  C          0.89307870       0.35788000       0.40641880
   164  C          0.10692130       0.85788000       0.09358120
   165  H          0.08403000       0.71634300       0.62279800
   166  H          0.91597000       0.21634300       0.87720200
   167  H          0.91597000       0.28365700       0.37720200
   168  H          0.08403000       0.78365700       0.12279800
   169  C          0.09684130       0.49152000       0.60860110
   170  C          0.90315870      -0.00848000       0.89139890
   171  C          0.90315870       0.50848000       0.39139890
   172  C          0.09684130       0.00848000       0.10860110
   173  H          0.06730000       0.46223900       0.64834700
   174  H          0.93270000       0.96223900       0.85165300
   175  H          0.93270000       0.53776100       0.35165300
   176  H          0.06730000       0.03776100       0.14834700
   177  C          0.12973130       0.38252000       0.56579100
   178  C          0.87026870       0.88252000       0.93420900
   179  C          0.87026870       0.61748000       0.43420900
   180  C          0.12973130       0.11748000       0.06579100
   181  H          0.12298900       0.27904100       0.57657200
   182  H          0.87701100       0.77904100       0.92342800
   183  H          0.87701100       0.72095900       0.42342800
   184  H          0.12298900       0.22095900       0.07657200
   185  C          0.16715120       0.34828190       0.34292100
   186  C          0.83284880       0.84828190       0.15707900
   187  C          0.83284880       0.65171810       0.65707900
   188  C          0.16715120       0.15171810       0.84292100
