data_BARWEA
_symmetry_space_group_name_H-M    'P1'
_symmetry_Int_Tables_number       1
loop_
_symmetry_equiv_pos_site_id
_symmetry_equiv_pos_as_xyz
1 x,y,z
_cell_length_a                   9.9482
_cell_length_b                   10.2522
_cell_length_c                   10.8153
_cell_angle_alpha                83.724
_cell_angle_beta                 80.193
_cell_angle_gamma                64.763
loop_
_atom_site_label
_atom_site_type_symbol
_atom_site_fract_x
_atom_site_fract_y
_atom_site_fract_z
     1  S          0.50311500       0.28852500       0.07490400
     2  S          0.49688500       0.71147500       0.92509600
     3  P          0.49094500       0.36574500       0.23511400
     4  P          0.50905500       0.63425500       0.76488600
     5  C          0.41002000       0.56194190       0.23807160
     6  C          0.58998000       0.43805810       0.76192840
     7  C          0.49372000       0.62778190       0.26735160
     8  C          0.50628000       0.37221810       0.73264840
     9  H          0.58976800       0.57010000       0.29183300
    10  H          0.41023200       0.42990000       0.70816700
    11  C          0.44052000       0.78072000       0.26205180
    12  C          0.55948000       0.21928000       0.73794820
    13  H          0.50066600       0.82385000       0.28348000
    14  H          0.49933400       0.17615000       0.71652000
    15  C          0.30472000       0.86492000       0.22662170
    16  C          0.69528000       0.13508000       0.77337830
    17  H          0.27120700       0.96677200       0.22181100
    18  H          0.72879300       0.03322800       0.77818900
    19  C          0.21052000       0.80312190       0.19628170
    20  C          0.78948000       0.19687810       0.80371830
    21  C          0.83008000       0.92042000       0.09832180
    22  C          0.16992000       0.07958000       0.90167820
    23  H          0.79509200       0.02242600       0.09312600
    24  H          0.20490800       0.97757400       0.90687400
    25  C          0.74208000       0.85862000       0.07268180
    26  C          0.25792000       0.14138000       0.92731820
    27  H          0.64620300       0.91802200       0.04873600
    28  H          0.35379700       0.08197800       0.95126400
    29  C          0.79118000       0.70692000       0.08111180
    30  C          0.20882000       0.29308000       0.91888820
    31  H          0.72809900       0.66539900       0.06275700
    32  H          0.27190100       0.33460100       0.93724300
    33  C          0.92738000       0.62052000       0.11515170
    34  C          0.07262000       0.37948000       0.88484830
    35  H          0.95814900       0.51890400       0.12125000
    36  H          0.04185100       0.48109600       0.87875000
    37  C          0.02502000       0.67857190       0.14186160
    38  C          0.97498000       0.32142810       0.85813840
    39  C          0.16742000       0.59076190       0.17574160
    40  C          0.83258000       0.40923810       0.82425840
    41  H          0.19984800       0.48896700       0.18048300
    42  H          0.80015200       0.51103300       0.81951700
    43  C          0.26232000       0.64825190       0.20253160
    44  C          0.73768000       0.35174810       0.79746840
    45  C          0.07002000       0.88983190       0.16133170
    46  C          0.92998000       0.11016810       0.83866830
    47  H          0.03746900      -0.00837300       0.15653000
    48  H          0.96253100       0.00837300       0.84347000
    49  C          0.97578000       0.83232000       0.13322170
    50  C          0.02422000       0.16768000       0.86677830
    51  C          0.38370190       0.30731190       0.36371160
    52  C          0.61629810       0.69268810       0.63628840
    53  C          0.39852000       0.16602000       0.36893180
    54  C          0.60148000       0.83398000       0.63106820
    55  H          0.46150800       0.10281300       0.30445700
    56  H          0.53849200       0.89718700       0.69554300
    57  C          0.32162000       0.11722000       0.46802000
    58  C          0.67838000       0.88278000       0.53198000
    59  H          0.33363900       0.01981500       0.47238500
    60  H          0.66636100       0.98018500       0.52761500
    61  C          0.22692000       0.21002000       0.56075180
    62  C          0.77308000       0.78998000       0.43924820
    63  H          0.17369300       0.17626900       0.62829400
    64  H          0.82630700       0.82373100       0.37170600
    65  C          0.21012000       0.35062000       0.55517190
    66  C          0.78988000       0.64938000       0.44482810
    67  H          0.14413400       0.41429700       0.61827600
    68  H          0.85586600       0.58570300       0.38172400
    69  C          0.28912000       0.39952000       0.45760180
    70  C          0.71088000       0.60048000       0.54239820
    71  H          0.27864200       0.49631400       0.45483300
    72  H          0.72135800       0.50368600       0.54516700
    73  C          0.67592000       0.30723180       0.28129170
    74  C          0.32408000       0.69276820       0.71870830
    75  C          0.70272000       0.26812000       0.40470180
    76  C          0.29728000       0.73188000       0.59529820
    77  H          0.62331700       0.26968000       0.46818700
    78  H          0.37668300       0.73032000       0.53181300
    79  C          0.84572000       0.22652000       0.43527190
    80  C          0.15428000       0.77348000       0.56472810
    81  H          0.86451800       0.19775100       0.51941500
    82  H          0.13548200       0.80224900       0.48058500
    83  C          0.96072000       0.22702000       0.34342000
    84  C          0.03928000       0.77298000       0.65658000
    85  H          0.05787600       0.20112500       0.36491000
    86  H          0.94212400       0.79887500       0.63509000
    87  C          0.93432000       0.26512000       0.22022000
    88  C          0.06568000       0.73488000       0.77978000
    89  H          0.01364900       0.26425200       0.15699300
    90  H          0.98635100       0.73574800       0.84300700
    91  C          0.79302000       0.30439190       0.18906180
    92  C          0.20698000       0.69560810       0.81093820
    93  H          0.77553700       0.32960100       0.10424600
    94  H          0.22446300       0.67039900       0.89575400
