data_BAWNIW
_symmetry_space_group_name_H-M    'P1'
_symmetry_Int_Tables_number       1
loop_
_symmetry_equiv_pos_site_id
_symmetry_equiv_pos_as_xyz
1 x,y,z
_cell_length_a                   24.75312
_cell_length_b                   6.2263
_cell_length_c                   6.3403
_cell_angle_alpha                90.0
_cell_angle_beta                 95.412
_cell_angle_gamma                90.0
loop_
_atom_site_label
_atom_site_type_symbol
_atom_site_fract_x
_atom_site_fract_y
_atom_site_fract_z
     1  Cl         0.16363000       0.42380000       0.23570000
     2  Cl         0.33637000       0.92380000       0.76430000
     3  Cl         0.83637000       0.57620000       0.76430000
     4  Cl         0.66363000       0.07620000       0.23570000
     5  Cl         0.18411000       0.88621000       0.58925000
     6  Cl         0.31589000       0.38621000       0.41075000
     7  Cl         0.81589000       0.11379000       0.41075000
     8  Cl         0.68411000       0.61379000       0.58925000
     9  Cl         0.08651000       0.61106000       0.72247000
    10  Cl         0.41349000       0.11106000       0.27753000
    11  Cl         0.91349000       0.38894000       0.27753000
    12  Cl         0.58651000       0.88894000       0.72247000
    13  Cl         0.03040000       0.74727000       0.12501000
    14  Cl         0.46960000       0.24727000       0.87499000
    15  Cl         0.96960000       0.25273000       0.87499000
    16  Cl         0.53040000       0.75273000       0.12501000
    17  N          0.05358000       0.19380000       0.48620000
    18  N          0.44642000       0.69380000       0.51380000
    19  N          0.94642000       0.80620000       0.51380000
    20  N          0.55358000       0.30620000       0.48620000
    21  N          0.24738000       0.36440000       0.80210000
    22  N          0.25262000       0.86440000       0.19790000
    23  N          0.75262000       0.63560000       0.19790000
    24  N          0.74738000       0.13560000       0.80210000
    25  C          0.09900000       0.08000000       0.15500000
    26  C          0.40100000       0.58000000       0.84500000
    27  C          0.90100000       0.92000000       0.84500000
    28  C          0.59900000       0.42000000       0.15500000
    29  C          0.14185000       0.20160000       0.09250000
    30  C          0.35815000       0.70160000       0.90750000
    31  C          0.85815000       0.79840000       0.90750000
    32  C          0.64185000       0.29840000       0.09250000
    33  C          0.16761000       0.14230000       0.91560000
    34  C          0.33239000       0.64230000       0.08440000
    35  C          0.83239000       0.85770000       0.08440000
    36  C          0.66761000       0.35770000       0.91560000
    37  C          0.15055000       0.95790000       0.80340000
    38  C          0.34945000       0.45790000       0.19660000
    39  C          0.84945000       0.04210000       0.19660000
    40  C          0.65055000       0.54210000       0.80340000
    41  C          0.10768000       0.83470000       0.86310000
    42  C          0.39232000       0.33470000       0.13690000
    43  C          0.89232000       0.16530000       0.13690000
    44  C          0.60768000       0.66530000       0.86310000
    45  C          0.08240000       0.89680000       0.04030000
    46  C          0.41760000       0.39680000       0.95970000
    47  C          0.91760000       0.10320000       0.95970000
    48  C          0.58240000       0.60320000       0.04030000
    49  C          0.07266000       0.14330000       0.33970000
    50  C          0.42734000       0.64330000       0.66030000
    51  C          0.92734000       0.85670000       0.66030000
    52  C          0.57266000       0.35670000       0.33970000
    53  C          0.21227000       0.26640000       0.85230000
    54  C          0.28773000       0.76640000       0.14770000
    55  C          0.78773000       0.73360000       0.14770000
    56  C          0.71227000       0.23360000       0.85230000
