data_BAWNIW08
_symmetry_space_group_name_H-M    'P1'
_symmetry_Int_Tables_number       1
loop_
_symmetry_equiv_pos_site_id
_symmetry_equiv_pos_as_xyz
1 x,y,z
_cell_length_a                   8.60031
_cell_length_b                   9.238211
_cell_length_c                   6.30247
_cell_angle_alpha                90.0
_cell_angle_beta                 96.21526
_cell_angle_gamma                90.0
loop_
_atom_site_label
_atom_site_type_symbol
_atom_site_fract_x
_atom_site_fract_y
_atom_site_fract_z
     1  C          0.29115600       0.39281000       0.90496500
     2  C          0.70884400       0.89281000       0.09503500
     3  C          0.21253400       0.39195700       0.09171000
     4  C          0.78746600       0.89195700       0.90829000
     5  C          0.17281700       0.52462800       0.18592500
     6  C          0.82718300       0.02462800       0.81407500
     7  C          0.21172800       0.65812100       0.09353900
     8  C          0.78827200       0.15812100       0.90646100
     9  C          0.29033300       0.65973500       0.90676800
    10  C          0.70966700       0.15973500       0.09323200
    11  C          0.33001400       0.52635200       0.81258100
    12  C          0.66998600       0.02635200       0.18741900
    13  C          0.09281700       0.52372600       0.38025700
    14  C          0.90718300       0.02372600       0.61974300
    15  C          0.33093000       0.25564000       0.80637500
    16  C          0.66907000       0.75564000       0.19362500
    17  Cl         0.42441800       0.52791700       0.58516700
    18  Cl         0.57558200       0.02791700       0.41483300
    19  Cl         0.33804600       0.82061500       0.79628100
    20  Cl         0.66195400       0.32061500       0.20371900
    21  Cl         0.16591400       0.81872400       0.20891400
    22  Cl         0.83408600       0.31872400       0.79108600
    23  Cl         0.16602600       0.23031400       0.20433800
    24  Cl         0.83397400       0.73031400       0.79566200
    25  N          0.02874400       0.52302600       0.53421800
    26  N          0.97125600       0.02302600       0.46578200
    27  N          0.36231700       0.14744600       0.72856400
    28  N          0.63768300       0.64744600       0.27143600
