data_BAWNIW02
_symmetry_space_group_name_H-M    'P1'
_symmetry_Int_Tables_number       1
loop_
_symmetry_equiv_pos_site_id
_symmetry_equiv_pos_as_xyz
1 x,y,z
_cell_length_a                   13.5912
_cell_length_b                   6.30339
_cell_length_c                   18.4293
_cell_angle_alpha                90.0
_cell_angle_beta                 109.4485
_cell_angle_gamma                90.0
loop_
_atom_site_label
_atom_site_type_symbol
_atom_site_fract_x
_atom_site_fract_y
_atom_site_fract_z
     1  C          0.53244000       0.87361200       0.32373000
     2  C          0.46756000       0.37361200       0.67627000
     3  C          0.56845000      -0.00478700       0.27373000
     4  C          0.43155000       0.49521300       0.72627000
     5  C          0.54215000       0.92901400       0.19613000
     6  C          0.45785000       0.42901400       0.80387000
     7  C          0.48265000       0.74711300       0.16963000
     8  C          0.51735000       0.24711300       0.83037000
     9  C          0.44765000       0.62731300       0.21913000
    10  C          0.55235000       0.12731300       0.78087000
    11  C          0.47305000       0.69261500       0.29674000
    12  C          0.52695000       0.19261500       0.70326000
    13  C          0.55725000       0.93161700       0.40344000
    14  C          0.44275000       0.43161700       0.59656000
    15  C          0.58055000       0.05661300       0.14504000
    16  C          0.41945000       0.55661300       0.85496000
    17  Cl         0.64302150       0.21504000       0.30672100
    18  Cl         0.35697850       0.71504000       0.69327900
    19  Cl         0.45422150       0.68074000       0.07483100
    20  Cl         0.54577850       0.18074000       0.92516900
    21  Cl         0.37221150       0.40464000       0.18622110
    22  Cl         0.62778850       0.90464000       0.81377890
    23  Cl         0.43198160       0.54314000       0.35975110
    24  Cl         0.56801840       0.04314000       0.64024890
    25  N          0.58055000      -0.02048500       0.46683000
    26  N          0.41945000       0.47951500       0.53317000
    27  N          0.60675000       0.15641400       0.10363000
    28  N          0.39325000       0.65641400       0.89637000
    29  C          0.13165000       0.69281400       0.97016000
    30  C          0.86835000       0.19281400       0.02984000
    31  C          0.19205000       0.87721200      -0.00354000
    32  C          0.80795000       0.37721200       0.00354000
    33  C          0.22565000       0.00641400       0.94766000
    34  C          0.77435000       0.50641400       0.05234000
    35  C          0.19684000       0.95441000       0.87047000
    36  C          0.80316000       0.45441000       0.12953000
    37  C          0.13685000       0.77201400       0.84187000
    38  C          0.86315000       0.27201400       0.15813000
    39  C          0.10495000       0.64491400       0.89147000
    40  C          0.89505000       0.14491400       0.10853000
    41  C          0.09855000       0.55991400       0.02314000
    42  C          0.90145000       0.05991400       0.97686000
    43  C          0.10715000       0.71551500       0.76087000
    44  C          0.89285000       0.21551500       0.23913000
    45  Cl         0.02716150       0.42534000       0.85806890
    46  Cl         0.97283850       0.92534000       0.14193110
    47  Cl         0.22429140       0.94154000       0.09397900
    48  Cl         0.77570860       0.44154000       0.90602100
    49  Cl         0.30180150       0.22684000       0.98297890
    50  Cl         0.69819850       0.72684000       0.01702110
    51  Cl         0.23568160       0.10674000       0.80739900
    52  Cl         0.76431840       0.60674000       0.19260100
    53  N          0.06995000       0.46631300       0.06313000
    54  N          0.93005000       0.96631300       0.93687000
    55  N          0.08175000       0.67591200       0.69937000
    56  N          0.91825000       0.17591200       0.30063000
    57  C          0.79285000       0.70521300       0.63707000
    58  C          0.20715000       0.20521300       0.36293000
    59  C          0.85195000       0.89191400       0.66287000
    60  C          0.14805000       0.39191400       0.33713000
    61  C          0.89055000       0.01211400       0.61377000
    62  C          0.10945000       0.51211400       0.38623000
    63  C          0.86906000       0.94261400       0.53797000
    64  C          0.13094000       0.44261400       0.46203000
    65  C          0.81045000       0.76021300       0.51177000
    66  C          0.18955000       0.26021300       0.48823000
    67  C          0.77285000       0.64251300       0.56127000
    68  C          0.22715000       0.14251300       0.43873000
    69  C          0.75545000       0.58081400       0.68897000
    70  C          0.24455000       0.08081400       0.31103000
    71  C          0.78545000       0.69241200       0.43036000
    72  C          0.21455000       0.19241200       0.56964000
    73  Cl         0.69753850       0.41794000       0.52812890
    74  Cl         0.30246150       0.91794000       0.47187110
    75  Cl         0.87666850       0.96974000       0.75700100
    76  Cl         0.12333150       0.46974000       0.24299900
    77  Cl         0.96357850       0.23554000       0.64605890
    78  Cl         0.03642150       0.73554000       0.35394110
    79  Cl         0.91128840       0.08744000       0.47420890
    80  Cl         0.08871160       0.58744000       0.52579110
    81  N          0.72365000       0.48981200       0.72957000
    82  N          0.27635000      -0.01018800       0.27043000
    83  N          0.76345000       0.64211300       0.37086000
    84  N          0.23655000       0.14211300       0.62914000
