data_BAWNIW07
_symmetry_space_group_name_H-M    'P1'
_symmetry_Int_Tables_number       1
loop_
_symmetry_equiv_pos_site_id
_symmetry_equiv_pos_as_xyz
1 x,y,z
_cell_length_a                   8.161518
_cell_length_b                   9.419119
_cell_length_c                   6.472814
_cell_angle_alpha                90.0
_cell_angle_beta                 93.730764
_cell_angle_gamma                90.0
loop_
_atom_site_label
_atom_site_type_symbol
_atom_site_fract_x
_atom_site_fract_y
_atom_site_fract_z
     1  C          0.18891500       0.39536900       0.12904600
     2  C          0.81108500       0.89536900       0.87095400
     3  C          0.27804000       0.39311400       0.94827500
     4  C          0.72196000       0.89311400       0.05172500
     5  C          0.32261700       0.52301500       0.85476800
     6  C          0.67738300       0.02301500       0.14523200
     7  C          0.27795200       0.65319000       0.94235200
     8  C          0.72204800       0.15319000       0.05764800
     9  C          0.18816000       0.65462800       0.12344800
    10  C          0.81184000       0.15462800       0.87655200
    11  C          0.14485200       0.52681100       0.21756500
    12  C          0.85514800       0.02681100       0.78243500
    13  C          0.41566500       0.52152400       0.66865700
    14  C          0.58433500       0.02152400       0.33134300
    15  C          0.14302100       0.26151900       0.22496700
    16  C          0.85697900       0.76151900       0.77503300
    17  Cl         0.03516600       0.52986000       0.43403600
    18  Cl         0.96483400       0.02986000       0.56596400
    19  Cl         0.13551800       0.81431100       0.23075500
    20  Cl         0.86448200       0.31431100       0.76924500
    21  Cl         0.33226800       0.81142100       0.83054700
    22  Cl         0.66773200       0.31142100       0.16945300
    23  Cl         0.33265200       0.23481500       0.84358400
    24  Cl         0.66734800       0.73481500       0.15641600
    25  N          0.48931400       0.52201200       0.52195600
    26  N          0.51068600       0.02201200       0.47804400
    27  N          0.10506700       0.15572000       0.30026100
    28  N          0.89493300       0.65572000       0.69973900
