data_BEDMIG08
_symmetry_space_group_name_H-M    'P1'
_symmetry_Int_Tables_number       1
loop_
_symmetry_equiv_pos_site_id
_symmetry_equiv_pos_as_xyz
1 x,y,z
_cell_length_a                   26.6576
_cell_length_b                   5.093816
_cell_length_c                   8.994118
_cell_angle_alpha                90.0
_cell_angle_beta                 90.0
_cell_angle_gamma                90.0
loop_
_atom_site_label
_atom_site_type_symbol
_atom_site_fract_x
_atom_site_fract_y
_atom_site_fract_z
     1  C          0.04057170       0.76509000       0.48795000
     2  C          0.45942830       0.23491000      -0.01205000
     3  C          0.54057170       0.73491000       0.51205000
     4  C          0.95942830       0.26509000       0.01205000
     5  C          0.04432190       0.60981000       0.61376000
     6  C          0.45567810       0.39019000       0.11376000
     7  C          0.54432190       0.89019000       0.38624000
     8  C          0.95567810       0.10981000       0.88624000
     9  H          0.01980000       0.62070000       0.69020000
    10  H          0.48020000       0.37930000       0.19020000
    11  H          0.51980000       0.87930000       0.30980000
    12  H          0.98020000       0.12070000       0.80980000
    13  C          0.08455180       0.43799000       0.62615000
    14  C          0.41544820       0.56201000       0.12615000
    15  C          0.58455180       0.06201000       0.37385000
    16  C          0.91544820       0.93799000       0.87385000
    17  H          0.08770000       0.32690000       0.71050000
    18  H          0.41230000       0.67310000       0.21050000
    19  H          0.58770000       0.17310000       0.28950000
    20  H          0.91230000       0.82690000       0.78950000
    21  C          0.12016160       0.43058000       0.51305000
    22  C          0.37983840       0.56942000       0.01305000
    23  C          0.62016160       0.06942000       0.48695000
    24  C          0.87983840       0.93058000      -0.01305000
    25  C          0.11604180       0.58859000       0.38815000
    26  C          0.38395820       0.41141000       0.88815000
    27  C          0.61604180       0.91141000       0.61185000
    28  C          0.88395820       0.08859000       0.11185000
    29  H          0.14050000       0.58040000       0.31150000
    30  H          0.35950000       0.41960000       0.81150000
    31  H          0.64050000       0.91960000       0.68850000
    32  H          0.85950000       0.08040000       0.18850000
    33  C          0.07575180       0.75829000       0.37675000
    34  C          0.42424820       0.24171000       0.87675000
    35  C          0.57575180       0.74171000       0.62325000
    36  C          0.92424820       0.25829000       0.12325000
    37  H          0.07250000       0.86930000       0.29250000
    38  H          0.42750000       0.13070000       0.79250000
    39  H          0.57250000       0.63070000       0.70750000
    40  H          0.92750000       0.36930000       0.20750000
    41  C          0.24603160       0.57128000       0.51355000
    42  C          0.25396840       0.42872000       0.01355000
    43  C          0.74603160       0.92872000       0.48645000
    44  C          0.75396840       0.07128000      -0.01355000
    45  C          0.30770160       0.92758000       0.53575000
    46  C          0.19229840       0.07242000       0.03575000
    47  C          0.80770160       0.57242000       0.46425000
    48  C          0.69229840       0.42758000       0.96425000
    49  H          0.30590000       0.08240000       0.60200000
    50  H          0.19410000       0.91760000       0.10200000
    51  H          0.80590000       0.41760000       0.39800000
    52  H          0.69410000       0.58240000       0.89800000
    53  H          0.29440000      -0.01980000       0.43730000
    54  H          0.20560000       0.01980000       0.93730000
    55  H          0.79440000       0.51980000       0.56270000
    56  H          0.70560000       0.48020000       0.06270000
    57  C          0.36211170       0.84608000       0.51866000
    58  C          0.13788830       0.15392000       0.01866000
    59  C          0.86211170       0.65392000       0.48134000
    60  C          0.63788830       0.34608000       0.98134000
    61  H          0.36450000       0.70160000       0.44530000
    62  H          0.13550000       0.29840000       0.94530000
    63  H          0.86450000       0.79840000       0.55470000
    64  H          0.63550000       0.20160000       0.05470000
    65  H          0.37490000       0.78030000       0.61500000
    66  H          0.12510000       0.21970000       0.11500000
    67  H          0.87490000       0.71970000       0.38500000
    68  H          0.62510000       0.28030000       0.88500000
    69  C          0.39415170       0.07589000       0.46726000
    70  C          0.10584830       0.92411000       0.96726000
    71  C          0.89415170       0.42411000       0.53274000
    72  C          0.60584830       0.57589000       0.03274000
    73  H          0.38280000       0.13380000       0.36880000
    74  H          0.11720000       0.86620000       0.86880000
    75  H          0.88280000       0.36620000       0.63120000
    76  H          0.61720000       0.63380000       0.13120000
    77  H          0.42930000       0.02080000       0.46150000
    78  H          0.07070000      -0.02080000       0.96150000
    79  H          0.92930000       0.47920000       0.53850000
    80  H          0.57070000       0.52080000       0.03850000
    81  H          0.39090000       0.22090000       0.53810000
    82  H          0.10910000       0.77910000       0.03810000
    83  H          0.89090000       0.27910000       0.46190000
    84  H          0.60910000       0.72090000       0.96190000
    85  Cl         0.98932600      -0.02187000       0.47166160
    86  Cl         0.51067400       0.02187000       0.97166160
    87  Cl         0.48932600       0.52187000       0.52833840
    88  Cl         0.01067400       0.47813000       0.02833840
    89  N          0.21740140       0.39087000       0.59484000
    90  N          0.28259860       0.60913000       0.09484000
    91  N          0.71740140       0.10913000       0.40516000
    92  N          0.78259860       0.89087000       0.90516000
    93  H          0.22490000       0.37140000       0.68940000
    94  H          0.27510000       0.62860000       0.18940000
    95  H          0.72490000       0.12860000       0.31060000
    96  H          0.77510000       0.87140000       0.81060000
    97  N          0.27601150       0.71918000       0.59664000
    98  N          0.22398850       0.28082000       0.09664000
    99  N          0.77601150       0.78082000       0.40336000
   100  N          0.72398850       0.21918000       0.90336000
   101  H          0.27690000       0.69030000       0.69300000
   102  H          0.22310000       0.30970000       0.19300000
   103  H          0.77690000       0.80970000       0.30700000
   104  H          0.72310000       0.19030000       0.80700000
   105  O          0.16084120       0.03057000       0.64623000
   106  O          0.33915880       0.96943000       0.14623000
   107  O          0.66084120       0.46943000       0.35377000
   108  O          0.83915880       0.53057000       0.85377000
   109  O          0.18368130       0.12226000       0.38414000
   110  O          0.31631870       0.87774000       0.88414000
   111  O          0.68368130       0.37774000       0.61586000
   112  O          0.81631870       0.62226000       0.11586000
   113  O          0.24243120       0.58626000       0.37704000
   114  O          0.25756880       0.41374000       0.87704000
   115  O          0.74243120       0.91374000       0.62296000
   116  O          0.75756880       0.08626000       0.12296000
   117  S          0.17148400       0.21372000       0.53002120
   118  S          0.32851600       0.78628000       0.03002120
   119  S          0.67148400       0.28628000       0.46997880
   120  S          0.82851600       0.71372000       0.96997880
