data_BEDMIG17
_symmetry_space_group_name_H-M    'P1'
_symmetry_Int_Tables_number       1
loop_
_symmetry_equiv_pos_site_id
_symmetry_equiv_pos_as_xyz
1 x,y,z
_cell_length_a                   25.6023
_cell_length_b                   4.63402
_cell_length_c                   8.85254
_cell_angle_alpha                99.1094
_cell_angle_beta                 90.0
_cell_angle_gamma                90.0
loop_
_atom_site_label
_atom_site_type_symbol
_atom_site_fract_x
_atom_site_fract_y
_atom_site_fract_z
     1  C          0.88695000       0.05021100       0.45606000
     2  C          0.38695000       0.94978900       0.54394000
     3  C          0.87615000       0.88101200       0.31535000
     4  C          0.37615000       0.11898800       0.68465000
     5  H          0.89570000       0.90480000       0.22980000
     6  H          0.39570000       0.09520000       0.77020000
     7  C          0.83606000       0.67631200       0.30265000
     8  C          0.33606000       0.32368800       0.69735000
     9  H          0.82880000       0.56310000       0.20850000
    10  H          0.32880000       0.43690000       0.79150000
    11  C          0.80675000       0.64081100       0.43056000
    12  C          0.30675000       0.35918900       0.56944000
    13  C          0.81755000       0.81001200       0.57125000
    14  C          0.31755000       0.18998800       0.42875000
    15  H          0.79790000       0.78620000       0.65680000
    16  H          0.29790000       0.21380000       0.34320000
    17  C          0.85765000       0.01471100       0.58395000
    18  C          0.35765000      -0.01471100       0.41605000
    19  H          0.86480000       0.12790000       0.67800000
    20  H          0.36480000       0.87210000       0.32200000
    21  C          0.67681100       0.79461600       0.46178000
    22  C          0.17681100       0.20538400       0.53822000
    23  C          0.61231100       0.16961700       0.47669000
    24  C          0.11231100       0.83038300       0.52331000
    25  H          0.60220000       0.31490000       0.41430000
    26  H          0.10220000       0.68510000       0.58570000
    27  H          0.63060000       0.27020000       0.56550000
    28  H          0.13060000       0.72980000       0.43450000
    29  C          0.56231200       0.02961900       0.53091000
    30  C          0.06231200      -0.02961900       0.46909000
    31  H          0.55030000       0.87610000       0.45090000
    32  H          0.05030000       0.12390000       0.54910000
    33  H          0.57040000       0.94140000       0.62040000
    34  H          0.07040000       0.05860000       0.37960000
    35  C          0.51841200       0.25601900       0.57031100
    36  C          0.01841200       0.74398100       0.42968900
    37  H          0.50160000       0.29050000       0.47790000
    38  H          0.00160000       0.70950000       0.52210000
    39  H          0.53300000       0.43560000       0.62220000
    40  H          0.03300000       0.56440000       0.37780000
    41  H          0.49330000       0.18320000       0.63550000
    42  H          0.99330000       0.81680000       0.36450000
    43  Cl         0.93333000       0.31655000       0.47133000
    44  Cl         0.43333000       0.68345000       0.52867000
    45  N          0.70798000       0.59731300       0.36367000
    46  N          0.20798000       0.40268700       0.63633000
    47  H          0.70110000       0.57940000       0.26740000
    48  H          0.20110000       0.42060000       0.73260000
    49  N          0.64718000      -0.03068700       0.39118000
    50  N          0.14718000       0.03068700       0.60882000
    51  H          0.64910000       0.96010000       0.29350000
    52  H          0.14910000       0.03990000       0.70650000
    53  O          0.76337000       0.18801100       0.28196000
    54  O          0.26337000       0.81198900       0.71804000
    55  O          0.74517000       0.32071200       0.55806000
    56  O          0.24517000       0.67928800       0.44194000
    57  O          0.67557000       0.80321000       0.60315000
    58  O          0.17557000       0.19679000       0.39685000
    59  S          0.75393000       0.40555000       0.41162000
    60  S          0.25393000       0.59445000       0.58838000
    61  C          0.46215000       0.52251100       0.06846000
    62  C          0.96215000       0.47748900       0.93154000
    63  C          0.46265000       0.64151100       0.93386000
    64  C          0.96265000       0.35848900       0.06614000
    65  H          0.43580000       0.59910000       0.86300000
    66  H          0.93580000       0.40090000       0.13700000
    67  C          0.50335000       0.82371100       0.90495000
    68  C          0.00335000       0.17628900       0.09505000
    69  H          0.50370000       0.90330000       0.81480000
    70  H          0.00370000       0.09670000       0.18520000
    71  C          0.54355000       0.88701100       0.01066000
    72  C          0.04355000       0.11298900      -0.01066000
    73  C          0.54294000       0.76811100       0.14526000
    74  C          0.04294000       0.23188900       0.85474000
    75  H          0.56980000       0.81040000       0.21600000
    76  H          0.06980000       0.18960000       0.78400000
    77  C          0.50235000       0.58581100       0.17415000
    78  C          0.00235000       0.41418900       0.82585000
    79  H          0.50190000       0.50630000       0.26420000
    80  H          0.00190000       0.49370000       0.73580000
    81  C          0.67201000       0.70311600       0.95298000
    82  C          0.17201000       0.29688400       0.04702000
    83  C          0.73439000       0.30120000       0.90219000
    84  C          0.23439000       0.69880000       0.09781000
    85  H          0.73370000       0.12630000       0.82560000
    86  H          0.23370000       0.87370000       0.17440000
    87  H          0.72230000       0.24670000      -0.00240000
    88  H          0.22230000       0.75330000       0.00240000
    89  C          0.78938000       0.40301800       0.92289000
    90  C          0.28938000       0.59698200       0.07711000
    91  H          0.79040000       0.57470000       0.00130000
    92  H          0.29040000       0.42530000      -0.00130000
    93  H          0.80160000       0.45990000       0.82810000
    94  H          0.30160000       0.54010000       0.17190000
    95  C          0.82619000       0.17091600       0.96809000
    96  C          0.32619000       0.82908400       0.03191000
    97  H          0.82500000      -0.00050000       0.89130000
    98  H          0.32500000       0.00050000       0.10870000
    99  H          0.81540000       0.12140000       0.06460000
   100  H          0.31540000       0.87860000       0.93540000
   101  H          0.86110000       0.24620000       0.97640000
   102  H          0.36110000       0.75380000       0.02360000
   103  Cl         0.41373000       0.29905000       0.10673000
   104  Cl         0.91373000       0.70095000       0.89327000
   105  N          0.63778000       0.88331300       0.88717000
   106  N          0.13778000       0.11668700       0.11283000
   107  H          0.63920000       0.87570000       0.78950000
   108  H          0.13920000       0.12430000       0.21050000
   109  N          0.69718000       0.51241300       0.85567000
   110  N          0.19718000       0.48758700       0.14433000
   111  H          0.69160000       0.50970000       0.75950000
   112  H          0.19160000       0.49030000       0.24050000
   113  O          0.58017000       0.28511100       0.87286000
   114  O          0.08017000       0.71488900       0.12714000
   115  O          0.61667000       0.23091100       0.12486000
   116  O          0.11667000       0.76908900       0.87514000
   117  O          0.67618000       0.72811200       0.09066000
   118  O          0.17618000       0.27188800       0.90934000
   119  S          0.59573000       0.10404000       0.97922000
   120  S          0.09573000       0.89596000       0.02078000
