data_BEDMIG04
_symmetry_space_group_name_H-M    'P1'
_symmetry_Int_Tables_number       1
loop_
_symmetry_equiv_pos_site_id
_symmetry_equiv_pos_as_xyz
1 x,y,z
_cell_length_a                   19.91211
_cell_length_b                   7.34594
_cell_length_c                   9.13844
_cell_angle_alpha                90.0
_cell_angle_beta                 90.0
_cell_angle_gamma                90.0
loop_
_atom_site_label
_atom_site_type_symbol
_atom_site_fract_x
_atom_site_fract_y
_atom_site_fract_z
     1  C          0.28064170       0.34595000       0.40545000
     2  C          0.71935830       0.65405000       0.90545000
     3  C          0.78064170       0.15405000       0.40545000
     4  C          0.21935830       0.84595000       0.90545000
     5  C          0.31652000       0.32935000       0.27694000
     6  C          0.68348000       0.67065000       0.77694000
     7  C          0.81652000       0.17065000       0.27694000
     8  C          0.18348000       0.82935000       0.77694000
     9  H          0.31650000       0.42290000       0.20830000
    10  H          0.68350000       0.57710000       0.70830000
    11  H          0.81650000       0.07710000       0.20830000
    12  H          0.18350000       0.92290000       0.70830000
    13  C          0.35196190       0.17315000       0.25204000
    14  C          0.64803810       0.82685000       0.75204000
    15  C          0.85196190       0.32685000       0.25204000
    16  C          0.14803810       0.67315000       0.75204000
    17  H          0.37640000       0.16010000       0.16590000
    18  H          0.62360000       0.83990000       0.66590000
    19  H          0.87640000       0.33990000       0.16590000
    20  H          0.12360000       0.66010000       0.66590000
    21  C          0.35178160       0.03545000       0.35343000
    22  C          0.64821840       0.96455000       0.85343000
    23  C          0.85178160       0.46455000       0.35343000
    24  C          0.14821840       0.53545000       0.85343000
    25  C          0.31681170       0.05255000       0.48134000
    26  C          0.68318830       0.94745000       0.98134000
    27  C          0.81681170       0.44745000       0.48134000
    28  C          0.18318830       0.55255000       0.98134000
    29  H          0.31730000       0.95960000       0.55040000
    30  H          0.68270000       0.04040000       0.05040000
    31  H          0.81730000       0.54040000       0.55040000
    32  H          0.18270000       0.45960000       0.05040000
    33  C          0.28042000       0.21116000       0.50654000
    34  C          0.71958000       0.78884000       0.00654000
    35  C          0.78042000       0.28884000       0.50654000
    36  C          0.21958000       0.71116000       0.00654000
    37  H          0.25600000       0.22450000       0.59250000
    38  H          0.74400000       0.77550000       0.09250000
    39  H          0.75600000       0.27550000       0.59250000
    40  H          0.24400000       0.72450000       0.09250000
    41  C          0.50857150       0.03044000       0.33033000
    42  C          0.49142850       0.96956000       0.83033000
    43  C          0.00857150       0.46956000       0.33033000
    44  C          0.99142850       0.53044000       0.83033000
    45  C          0.59407170       0.26674000       0.30884000
    46  C          0.40592830       0.73326000       0.80884000
    47  C          0.09407170       0.23326000       0.30884000
    48  C          0.90592830       0.76674000       0.80884000
    49  H          0.63440000       0.27290000       0.24940000
    50  H          0.36560000       0.72710000       0.74940000
    51  H          0.13440000       0.22710000       0.24940000
    52  H          0.86560000       0.77290000       0.74940000
    53  H          0.60740000       0.23250000       0.40710000
    54  H          0.39260000       0.76750000       0.90710000
    55  H          0.10740000       0.26750000       0.40710000
    56  H          0.89260000       0.73250000       0.90710000
    57  C          0.56222000       0.45085000       0.31336000
    58  C          0.43778000       0.54915000       0.81336000
    59  C          0.06222000       0.04915000       0.31336000
    60  C          0.93778000       0.95085000       0.81336000
    61  H          0.52220000       0.44560000       0.37380000
    62  H          0.47780000       0.55440000       0.87380000
    63  H          0.02220000       0.05440000       0.37380000
    64  H          0.97780000       0.94560000       0.87380000
    65  H          0.54860000       0.48520000       0.21520000
    66  H          0.45140000       0.51480000       0.71520000
    67  H          0.04860000       0.01480000       0.21520000
    68  H          0.95140000      -0.01480000       0.71520000
    69  C          0.60873000       0.59207000       0.37287000
    70  C          0.39127000       0.40793000       0.87287000
    71  C          0.10873000       0.90793000       0.37287000
    72  C          0.89127000       0.09207000       0.87287000
    73  H          0.61310000       0.57640000       0.47670000
    74  H          0.38690000       0.42360000       0.97670000
    75  H          0.11310000       0.92360000       0.47670000
    76  H          0.88690000       0.07640000       0.97670000
    77  H          0.59100000       0.71080000       0.35250000
    78  H          0.40900000       0.28920000       0.85250000
    79  H          0.09100000       0.78920000       0.35250000
    80  H          0.90900000       0.21080000       0.85250000
    81  H          0.65200000       0.57960000       0.32750000
    82  H          0.34800000       0.42040000       0.82750000
    83  H          0.15200000       0.92040000       0.32750000
    84  H          0.84800000       0.07960000       0.82750000
    85  N          0.46851130       0.90516000       0.25413000
    86  N          0.53148870       0.09484000       0.75413000
    87  N          0.96851130       0.59484000       0.25413000
    88  N          0.03148870       0.40516000       0.75413000
    89  H          0.48230000       0.86470000       0.17100000
    90  H          0.51770000       0.13530000       0.67100000
    91  H          0.98230000       0.63530000       0.17100000
    92  H          0.01770000       0.36470000       0.67100000
    93  N          0.54965130       0.12494000       0.24933000
    94  N          0.45034870       0.87506000       0.74933000
    95  N          0.04965130       0.37506000       0.24933000
    96  N          0.95034870       0.62494000       0.74933000
    97  H          0.55080000       0.10340000       0.15680000
    98  H          0.44920000       0.89660000       0.65680000
    99  H          0.05080000       0.39660000       0.15680000
   100  H          0.94920000       0.60340000       0.65680000
   101  O          0.36688110       0.74287000       0.19618190
   102  O          0.63311890       0.25713000       0.69618190
   103  O          0.86688110       0.75713000       0.19618190
   104  O          0.13311890       0.24287000       0.69618190
   105  O          0.40594110       0.73797000       0.45242000
   106  O          0.59405890       0.26203000       0.95242000
   107  O          0.90594110       0.76203000       0.45242000
   108  O          0.09405890       0.23797000       0.95242000
   109  O          0.50327110       0.04103000       0.46532000
   110  O          0.49672890       0.95897000       0.96532000
   111  O          0.00327110       0.45897000       0.46532000
   112  O         -0.00327110       0.54103000       0.96532000
   113  S          0.39692400       0.83421900       0.31776700
   114  S          0.60307600       0.16578100       0.81776700
   115  S          0.89692400       0.66578100       0.31776700
   116  S          0.10307600       0.33421900       0.81776700
   117  Cl         0.23596600       0.54549160       0.43487180
   118  Cl         0.76403400       0.45450840       0.93487180
   119  Cl         0.73596600       0.95450840       0.43487180
   120  Cl         0.26403400       0.04549160       0.93487180
