data_BEDMIG05
_symmetry_space_group_name_H-M    'P1'
_symmetry_Int_Tables_number       1
loop_
_symmetry_equiv_pos_site_id
_symmetry_equiv_pos_as_xyz
1 x,y,z
_cell_length_a                   26.435319
_cell_length_b                   5.13984
_cell_length_c                   9.08456
_cell_angle_alpha                90.0
_cell_angle_beta                 90.0
_cell_angle_gamma                90.0
loop_
_atom_site_label
_atom_site_type_symbol
_atom_site_fract_x
_atom_site_fract_y
_atom_site_fract_z
     1  C          0.29277140       0.26779000       0.26386000
     2  C          0.70722860       0.73221000       0.76386000
     3  C          0.20722860       0.76779000       0.76386000
     4  C          0.79277140       0.23221000       0.26386000
     5  C          0.29740170       0.11161100       0.14375000
     6  C          0.70259830       0.88838900       0.64375000
     7  C          0.20259830       0.61161100       0.64375000
     8  C          0.79740170       0.38838900       0.14375000
     9  H          0.27360000       0.12280000       0.06560000
    10  H          0.72640000       0.87720000       0.56560000
    11  H          0.22640000       0.62280000       0.56560000
    12  H          0.77360000       0.37720000       0.06560000
    13  C          0.33702160       0.93631100       0.13595000
    14  C          0.66297840       0.06368900       0.63595000
    15  C          0.16297840       0.43631100       0.63595000
    16  C          0.83702160       0.56368900       0.13595000
    17  H          0.34050000       0.82440000       0.05330000
    18  H          0.65950000       0.17560000       0.55330000
    19  H          0.15950000       0.32440000       0.55330000
    20  H          0.84050000       0.67560000       0.05330000
    21  C          0.37172130       0.92638000       0.25126000
    22  C          0.62827870       0.07362000       0.75126000
    23  C          0.12827870       0.42638000       0.75126000
    24  C          0.87172130       0.57362000       0.25126000
    25  C          0.36672160       0.08431000       0.37235000
    26  C          0.63327840       0.91569000       0.87235000
    27  C          0.13327840       0.58431000       0.87235000
    28  C          0.86672160       0.41569000       0.37235000
    29  H          0.39040000       0.07340000       0.45070000
    30  H          0.60960000       0.92660000       0.95070000
    31  H          0.10960000       0.57340000       0.95070000
    32  H          0.89040000       0.42660000       0.45070000
    33  C          0.32703160       0.25911100       0.37975000
    34  C          0.67296840       0.74088900       0.87975000
    35  C          0.17296840       0.75911100       0.87975000
    36  C          0.82703160       0.24088900       0.37975000
    37  H          0.32330000       0.37090000       0.46220000
    38  H          0.67670000       0.62910000       0.96220000
    39  H          0.17670000       0.87090000       0.96220000
    40  H          0.82330000       0.12910000       0.46220000
    41  C          0.49785140       0.06308000       0.25356000
    42  C          0.50214860       0.93692000       0.75356000
    43  C          0.00214860       0.56308000       0.75356000
    44  C         -0.00214860       0.43692000       0.25356000
    45  C          0.55976140       0.41679000       0.22985000
    46  C          0.44023860       0.58321000       0.72985000
    47  C          0.94023860       0.91679000       0.72985000
    48  C          0.05976140       0.08321000       0.22985000
    49  H          0.54630000       0.46800000       0.32730000
    50  H          0.45370000       0.53200000       0.82730000
    51  H          0.95370000       0.96800000       0.82730000
    52  H          0.04630000       0.03200000       0.32730000
    53  H          0.55800000       0.57080000       0.16470000
    54  H          0.44200000       0.42920000       0.66470000
    55  H          0.94200000       0.07080000       0.66470000
    56  H          0.05800000       0.92920000       0.16470000
    57  C          0.61446140       0.33689000       0.24686000
    58  C          0.38553860       0.66311000       0.74686000
    59  C          0.88553860       0.83689000       0.74686000
    60  C          0.11446140       0.16311000       0.24686000
    61  H          0.61690000       0.19400000       0.31950000
    62  H          0.38310000       0.80600000       0.81950000
    63  H          0.88310000       0.69400000       0.81950000
    64  H          0.11690000       0.30600000       0.31950000
    65  H          0.62730000       0.27080000       0.15140000
    66  H          0.37270000       0.72920000       0.65140000
    67  H          0.87270000       0.77080000       0.65140000
    68  H          0.12730000       0.22920000       0.15140000
    69  C          0.64680150       0.56119000       0.29655000
    70  C          0.35319850       0.43881000       0.79655000
    71  C          0.85319850       0.06119000       0.79655000
    72  C          0.14680150       0.93881000       0.29655000
    73  H          0.63440000       0.62540000       0.39150000
    74  H          0.36560000       0.37460000       0.89150000
    75  H          0.86560000       0.12540000       0.89150000
    76  H          0.13440000       0.87460000       0.39150000
    77  H          0.64510000       0.70120000       0.22350000
    78  H          0.35490000       0.29880000       0.72350000
    79  H          0.85490000       0.20120000       0.72350000
    80  H          0.14510000       0.79880000       0.22350000
    81  H          0.68190000       0.50290000       0.30700000
    82  H          0.31810000       0.49710000       0.80700000
    83  H          0.81810000       0.00290000       0.80700000
    84  H          0.18190000      -0.00290000       0.30700000
    85  O          0.41212110       0.52397000       0.12303000
    86  O          0.58787890       0.47603000       0.62303000
    87  O          0.08787890       0.02397000       0.62303000
    88  O          0.91212110      -0.02397000       0.12303000
    89  O          0.43469110       0.61996000       0.38333000
    90  O          0.56530890       0.38004000       0.88333000
    91  O          0.06530890       0.11996000       0.88333000
    92  O          0.93469110       0.88004000       0.38333000
    93  O          0.49476110       0.07606000       0.38893000
    94  O          0.50523890       0.92394000       0.88893000
    95  O          0.00523890       0.57606000       0.88893000
    96  O         -0.00523890       0.42394000       0.38893000
    97  S          0.42316400       0.70722000       0.23721130
    98  S          0.57683600       0.29278000       0.73721130
    99  S          0.07683600       0.20722000       0.73721130
   100  S          0.92316400       0.79278000       0.23721130
   101  Cl         0.24323400       0.49133000       0.27008130
   102  Cl         0.75676600       0.50867000       0.77008130
   103  Cl         0.25676600      -0.00867000       0.77008130
   104  Cl         0.74323400       0.00867000       0.27008130
   105  N          0.46979120       0.88098000       0.17284000
   106  N          0.53020880       0.11902000       0.67284000
   107  N          0.03020880       0.38098000       0.67284000
   108  N          0.96979120       0.61902000       0.17284000
   109  H          0.47800000       0.85840000       0.07980000
   110  H          0.52200000       0.14160000       0.57980000
   111  H          0.02200000       0.35840000       0.57980000
   112  H          0.97800000       0.64160000       0.07980000
   113  N          0.52773130       0.21088000       0.16874000
   114  N          0.47226870       0.78912000       0.66874000
   115  N          0.97226870       0.71088000       0.66874000
   116  N          0.02773130       0.28912000       0.16874000
   117  H          0.52810000       0.18320000       0.07310000
   118  H          0.47190000       0.81680000       0.57310000
   119  H          0.97190000       0.68320000       0.57310000
   120  H          0.02810000       0.31680000       0.07310000
