data_BEDMIG02
_symmetry_space_group_name_H-M    'P1'
_symmetry_Int_Tables_number       1
loop_
_symmetry_equiv_pos_site_id
_symmetry_equiv_pos_as_xyz
1 x,y,z
_cell_length_a                   6.1262
_cell_length_b                   8.9416
_cell_length_c                   12.0204
_cell_angle_alpha                90.0
_cell_angle_beta                 99.683
_cell_angle_gamma                90.0
loop_
_atom_site_label
_atom_site_type_symbol
_atom_site_fract_x
_atom_site_fract_y
_atom_site_fract_z
     1  C          0.24531200       0.41431000       0.93696000
     2  C          0.75468800       0.91431000       0.06304000
     3  C          0.36201400       0.54339000       0.94046000
     4  C          0.63798600       0.04339000       0.05954000
     5  H          0.34250000       0.61780000      -0.00810000
     6  H          0.65750000       0.11780000       0.00810000
     7  C          0.51111300       0.56317000       0.86665000
     8  C          0.48888700       0.06317000       0.13335000
     9  H          0.58960000       0.65220000       0.86690000
    10  H          0.41040000       0.15220000       0.13310000
    11  C          0.54221000       0.44936000       0.79245000
    12  C          0.45779000       0.94936000       0.20755000
    13  C          0.42361200       0.31657000       0.79186000
    14  C          0.57638800       0.81657000       0.20814000
    15  H          0.44510000       0.23950000       0.74280000
    16  H          0.55490000       0.73950000       0.25720000
    17  C          0.27381300       0.30058000       0.86476000
    18  C          0.72618700       0.80058000       0.13524000
    19  H          0.19250000       0.21270000       0.86480000
    20  H          0.80750000       0.71270000       0.13520000
    21  C          0.42989000       0.46097000       0.50815000
    22  C          0.57011000       0.96097000       0.49185000
    23  C          0.14448000       0.47467000       0.34044000
    24  C          0.85552000       0.97467000       0.65956000
    25  H          0.19140000       0.37480000       0.32340000
    26  H          0.80860000       0.87480000       0.67660000
    27  H          0.13360000       0.53370000       0.27210000
    28  H          0.86640000       0.03370000       0.72790000
    29  C          0.92219000       0.46519000       0.37336000
    30  C          0.07781000       0.96519000       0.62664000
    31  H          0.87120000       0.56500000       0.38700000
    32  H          0.12880000       0.06500000       0.61300000
    33  H          0.93270000       0.40880000       0.44290000
    34  H          0.06730000       0.90880000       0.55710000
    35  C          0.75458900       0.39029000       0.28247000
    36  C          0.24541100       0.89029000       0.71753000
    37  H          0.81350000       0.29680000       0.26130000
    38  H          0.18650000       0.79680000       0.73870000
    39  H          0.72470000       0.45430000       0.21750000
    40  H          0.27530000       0.95430000       0.78250000
    41  H          0.61980000       0.37220000       0.31100000
    42  H          0.38020000       0.87220000       0.68900000
    43  Cl         0.05474000       0.38973000       0.02808170
    44  Cl         0.94526000       0.88973000       0.97191830
    45  N          0.58168000       0.54145000       0.58304000
    46  N          0.41832000       0.04145000       0.41696000
    47  H          0.59930000       0.63410000       0.56750000
    48  H          0.40070000       0.13410000       0.43250000
    49  N          0.31318000       0.54065000       0.42684000
    50  N          0.68682000       0.04065000       0.57316000
    51  H          0.33720000       0.63520000       0.42460000
    52  H          0.66280000       0.13520000       0.57540000
    53  O          0.87627000       0.59685000       0.73954000
    54  O          0.12373000       0.09685000       0.26046000
    55  O          0.81997000       0.33284000       0.67644000
    56  O          0.18003000       0.83284000       0.32356000
    57  O          0.41047000       0.32254000       0.51823000
    58  O          0.58953000       0.82254000       0.48177000
    59  S          0.73103000       0.47569160       0.69880130
    60  S          0.26897000       0.97569160       0.30119870
