data_BEDMIG01
_symmetry_space_group_name_H-M    'P1'
_symmetry_Int_Tables_number       1
loop_
_symmetry_equiv_pos_site_id
_symmetry_equiv_pos_as_xyz
1 x,y,z
_cell_length_a                   14.7773
_cell_length_b                   9.3164
_cell_length_c                   19.2245
_cell_angle_alpha                90.0
_cell_angle_beta                 90.0
_cell_angle_gamma                90.0
loop_
_atom_site_label
_atom_site_type_symbol
_atom_site_fract_x
_atom_site_fract_y
_atom_site_fract_z
     1  S          0.39975100       0.18463160       0.38208800
     2  S          0.10024900       0.31536840       0.88208800
     3  S          0.89975100       0.31536840       0.61791200
     4  S          0.60024900       0.18463160       0.11791200
     5  S          0.60024900       0.81536840       0.61791200
     6  S          0.89975100       0.68463160       0.11791200
     7  S          0.10024900       0.68463160       0.38208800
     8  S          0.39975100       0.81536840       0.88208800
     9  Cl         0.31471170       0.01083000       0.07585900
    10  Cl         0.18528830       0.48917000       0.57585900
    11  Cl         0.81471170       0.48917000       0.92414100
    12  Cl         0.68528830       0.01083000       0.42414100
    13  Cl         0.68528830      -0.01083000       0.92414100
    14  Cl         0.81471170       0.51083000       0.42414100
    15  Cl         0.18528830       0.51083000       0.07585900
    16  Cl         0.31471170      -0.01083000       0.57585900
    17  N          0.30573000       0.25074000       0.41312000
    18  N          0.19427000       0.24926000       0.91312000
    19  N          0.80573000       0.24926000       0.58688000
    20  N          0.69427000       0.25074000       0.08688000
    21  N          0.69427000       0.74926000       0.58688000
    22  N          0.80573000       0.75074000       0.08688000
    23  N          0.19427000       0.75074000       0.41312000
    24  N          0.30573000       0.74926000       0.91312000
    25  H          0.30500000       0.33910000       0.42590000
    26  H          0.19500000       0.16090000       0.92590000
    27  H          0.80500000       0.16090000       0.57410000
    28  H          0.69500000       0.33910000       0.07410000
    29  H          0.69500000       0.66090000       0.57410000
    30  H          0.80500000       0.83910000       0.07410000
    31  H          0.19500000       0.83910000       0.42590000
    32  H          0.30500000       0.66090000       0.92590000
    33  O          0.45953000       0.30495000       0.38112000
    34  O          0.04047000       0.19505000       0.88112000
    35  O          0.95953000       0.19505000       0.61888000
    36  O          0.54047000       0.30495000       0.11888000
    37  O          0.54047000       0.69505000       0.61888000
    38  O          0.95953000       0.80495000       0.11888000
    39  O          0.04047000       0.80495000       0.38112000
    40  O          0.45953000       0.69505000       0.88112000
    41  N          0.15363000       0.24705000       0.43412000
    42  N          0.34637000       0.25295000       0.93412000
    43  N          0.65363000       0.25295000       0.56588000
    44  N          0.84637000       0.24705000       0.06588000
    45  N          0.84637000       0.75295000       0.56588000
    46  N          0.65363000       0.74705000       0.06588000
    47  N          0.34637000       0.74705000       0.43412000
    48  N          0.15363000       0.75295000       0.93412000
    49  H          0.15860000       0.33870000       0.43760000
    50  H          0.34140000       0.16130000       0.93760000
    51  H          0.65860000       0.16130000       0.56240000
    52  H          0.84140000       0.33870000       0.06240000
    53  H          0.84140000       0.66130000       0.56240000
    54  H          0.65860000       0.83870000       0.06240000
    55  H          0.34140000       0.83870000       0.43760000
    56  H          0.15860000       0.66130000       0.93760000
    57  O          0.42403000       0.05824000       0.41932000
    58  O          0.07597000       0.44176000       0.91932000
    59  O          0.92403000       0.44176000       0.58068000
    60  O          0.57597000       0.05824000       0.08068000
    61  O          0.57597000       0.94176000       0.58068000
    62  O          0.92403000       0.55824000       0.08068000
    63  O          0.07597000       0.55824000       0.41932000
    64  O          0.42403000       0.94176000       0.91932000
    65  O          0.22713000       0.04024000       0.41132000
    66  O          0.27287000       0.45976000       0.91132000
    67  O          0.72713000       0.45976000       0.58868000
    68  O          0.77287000       0.04024000       0.08868000
    69  O          0.77287000       0.95976000       0.58868000
    70  O          0.72713000       0.54024000       0.08868000
    71  O          0.27287000       0.54024000       0.41132000
    72  O          0.22713000       0.95976000       0.91132000
    73  C          0.22704000       0.17096000       0.41963000
    74  C          0.27296000       0.32904000       0.91963000
    75  C          0.72704000       0.32904000       0.58037000
    76  C          0.77296000       0.17096000       0.08037000
    77  C          0.77296000       0.82904000       0.58037000
    78  C          0.72704000       0.67096000       0.08037000
    79  C          0.27296000       0.67096000       0.41963000
    80  C          0.22704000       0.82904000       0.91963000
    81  C          0.33794000       0.06178000       0.16073000
    82  C          0.16206000       0.43822000       0.66073000
    83  C          0.83794000       0.43822000       0.83927000
    84  C          0.66206000       0.06178000       0.33927000
    85  C          0.66206000       0.93822000       0.83927000
    86  C          0.83794000       0.56178000       0.33927000
    87  C          0.16206000       0.56178000       0.16073000
    88  C          0.33794000       0.93822000       0.66073000
    89  C          0.37524000       0.13716000       0.29583000
    90  C          0.12476000       0.36284000       0.79583000
    91  C          0.87524000       0.36284000       0.70417000
    92  C          0.62476000       0.13716000       0.20417000
    93  C          0.62476000       0.86284000       0.70417000
    94  C          0.87524000       0.63716000       0.20417000
    95  C          0.12476000       0.63716000       0.29583000
    96  C          0.37524000       0.86284000       0.79583000
    97  C          0.36404000      -0.00446000       0.27783000
    98  C          0.13596000       0.50446000       0.77783000
    99  C          0.86404000       0.50446000       0.72217000
   100  C          0.63596000      -0.00446000       0.22217000
   101  C          0.63596000       0.00446000       0.72217000
   102  C          0.86404000       0.49554000       0.22217000
   103  C          0.13596000       0.49554000       0.27783000
   104  C          0.36404000       0.00446000       0.77783000
   105  H          0.36910000       0.92450000       0.31150000
   106  H          0.13090000       0.57550000       0.81150000
   107  H          0.86910000       0.57550000       0.68850000
   108  H          0.63090000       0.92450000       0.18850000
   109  H          0.63090000       0.07550000       0.68850000
   110  H          0.86910000       0.42450000       0.18850000
   111  H          0.13090000       0.42450000       0.31150000
   112  H          0.36910000       0.07550000       0.81150000
   113  C          0.36785000       0.23907000       0.24464000
   114  C          0.13215000       0.26093000       0.74464000
   115  C          0.86785000       0.26093000       0.75536000
   116  C          0.63215000       0.23907000       0.25536000
   117  C          0.63215000       0.76093000       0.75536000
   118  C          0.86785000       0.73907000       0.25536000
   119  C          0.13215000       0.73907000       0.24464000
   120  C          0.36785000       0.76093000       0.74464000
   121  H          0.37640000       0.33510000       0.25580000
   122  H          0.12360000       0.16490000       0.75580000
   123  H          0.87640000       0.16490000       0.74420000
   124  H          0.62360000       0.33510000       0.24420000
   125  H          0.62360000       0.66490000       0.74420000
   126  H          0.87640000       0.83510000       0.24420000
   127  H          0.12360000       0.83510000       0.25580000
   128  H          0.37640000       0.66490000       0.75580000
   129  C          0.06535000       0.18257000       0.44444000
   130  C          0.43465000       0.31743000       0.94444000
   131  C          0.56535000       0.31743000       0.55556000
   132  C          0.93465000       0.18257000       0.05556000
   133  C          0.93465000       0.81743000       0.55556000
   134  C          0.56535000       0.68257000       0.05556000
   135  C          0.43465000       0.68257000       0.44444000
   136  C          0.06535000       0.81743000       0.94444000
   137  H          0.03300000       0.23530000       0.48010000
   138  H          0.46700000       0.26470000       0.98010000
   139  H          0.53300000       0.26470000       0.51990000
   140  H          0.96700000       0.23530000       0.01990000
   141  H          0.96700000       0.76470000       0.51990000
   142  H          0.53300000       0.73530000       0.01990000
   143  H          0.46700000       0.73530000       0.48010000
   144  H          0.03300000       0.76470000       0.98010000
   145  H          0.07290000       0.08460000       0.46050000
   146  H          0.42710000       0.41540000       0.96050000
   147  H          0.57290000       0.41540000       0.53950000
   148  H          0.92710000       0.08460000       0.03950000
   149  H          0.92710000       0.91540000       0.53950000
   150  H          0.57290000       0.58460000       0.03950000
   151  H          0.42710000       0.58460000       0.46050000
   152  H          0.07290000       0.91540000       0.96050000
   153  C          0.34805000       0.20188000       0.17734000
   154  C          0.15195000       0.29812000       0.67734000
   155  C          0.84805000       0.29812000       0.82266000
   156  C          0.65195000       0.20188000       0.32266000
   157  C          0.65195000       0.79812000       0.82266000
   158  C          0.84805000       0.70188000       0.32266000
   159  C          0.15195000       0.70188000       0.17734000
   160  C          0.34805000       0.79812000       0.67734000
   161  H          0.34160000       0.27230000       0.14340000
   162  H          0.15840000       0.22770000       0.64340000
   163  H          0.84160000       0.22770000       0.85660000
   164  H          0.65840000       0.27230000       0.35660000
   165  H          0.65840000       0.72770000       0.85660000
   166  H          0.84160000       0.77230000       0.35660000
   167  H          0.15840000       0.77230000       0.14340000
   168  H          0.34160000       0.72770000       0.64340000
   169  C          0.34515000       0.95833000       0.20953000
   170  C          0.15485000       0.54167000       0.70953000
   171  C          0.84515000       0.54167000       0.79047000
   172  C          0.65485000       0.95833000       0.29047000
   173  C          0.65485000       0.04167000       0.79047000
   174  C          0.84515000       0.45833000       0.29047000
   175  C          0.15485000       0.45833000       0.20953000
   176  C          0.34515000       0.04167000       0.70953000
   177  H          0.33750000       0.86250000       0.19750000
   178  H          0.16250000       0.63750000       0.69750000
   179  H          0.83750000       0.63750000       0.80250000
   180  H          0.66250000       0.86250000       0.30250000
   181  H          0.66250000       0.13750000       0.80250000
   182  H          0.83750000       0.36250000       0.30250000
   183  H          0.16250000       0.36250000       0.19750000
   184  H          0.33750000       0.13750000       0.69750000
   185  C          0.92053000       0.11721000       0.38947000
   186  C          0.57947000       0.38279000       0.88947000
   187  C          0.42053000       0.38279000       0.61053000
   188  C          0.07947000       0.11721000       0.11053000
   189  C          0.07947000       0.88279000       0.61053000
   190  C          0.42053000       0.61721000       0.11053000
   191  C          0.57947000       0.61721000       0.38947000
   192  C          0.92053000       0.88279000       0.88947000
   193  H          0.88460000       0.18050000       0.41740000
   194  H          0.61540000       0.31950000       0.91740000
   195  H          0.38460000       0.31950000       0.58260000
   196  H          0.11540000       0.18050000       0.08260000
   197  H          0.11540000       0.81950000       0.58260000
   198  H          0.38460000       0.68050000       0.08260000
   199  H          0.61540000       0.68050000       0.41740000
   200  H          0.88460000       0.81950000       0.91740000
   201  H          0.92830000       0.02740000       0.41320000
   202  H          0.57170000       0.47260000       0.91320000
   203  H          0.42830000       0.47260000       0.58680000
   204  H          0.07170000       0.02740000       0.08680000
   205  H          0.07170000       0.97260000       0.58680000
   206  H          0.42830000       0.52740000       0.08680000
   207  H          0.57170000       0.52740000       0.41320000
   208  H          0.92830000       0.97260000       0.91320000
   209  H          0.89090000       0.10100000       0.34570000
   210  H          0.60910000       0.39900000       0.84570000
   211  H          0.39090000       0.39900000       0.65430000
   212  H          0.10910000       0.10100000       0.15430000
   213  H          0.10910000       0.89900000       0.65430000
   214  H          0.39090000       0.60100000       0.15430000
   215  H          0.60910000       0.60100000       0.34570000
   216  H          0.89090000       0.89900000       0.84570000
   217  C          0.00855000       0.18179000       0.37725000
   218  C          0.49145000       0.31821000       0.87725000
   219  C          0.50855000       0.31821000       0.62275000
   220  C         -0.00855000       0.18179000       0.12275000
   221  C         -0.00855000       0.81821000       0.62275000
   222  C          0.50855000       0.68179000       0.12275000
   223  C          0.49145000       0.68179000       0.37725000
   224  C          0.00855000       0.81821000       0.87725000
   225  H          0.00060000       0.27940000       0.36080000
   226  H          0.49940000       0.22060000       0.86080000
   227  H          0.50060000       0.22060000       0.63920000
   228  H         -0.00060000       0.27940000       0.13920000
   229  H         -0.00060000       0.72060000       0.63920000
   230  H          0.50060000       0.77940000       0.13920000
   231  H          0.49940000       0.77940000       0.36080000
   232  H          0.00060000       0.72060000       0.86080000
   233  H          0.04020000       0.12820000       0.34140000
   234  H          0.45980000       0.37180000       0.84140000
   235  H          0.54020000       0.37180000       0.65860000
   236  H          0.95980000       0.12820000       0.15860000
   237  H          0.95980000       0.87180000       0.65860000
   238  H          0.54020000       0.62820000       0.15860000
   239  H          0.45980000       0.62820000       0.34140000
   240  H          0.04020000       0.87180000       0.84140000
