data_BEDMIG03
_symmetry_space_group_name_H-M    'P1'
_symmetry_Int_Tables_number       1
loop_
_symmetry_equiv_pos_site_id
_symmetry_equiv_pos_as_xyz
1 x,y,z
_cell_length_a                   9.31984
_cell_length_b                   10.32183
_cell_length_c                   26.26631
_cell_angle_alpha                90.0
_cell_angle_beta                 90.0
_cell_angle_gamma                90.0
loop_
_atom_site_label
_atom_site_type_symbol
_atom_site_fract_x
_atom_site_fract_y
_atom_site_fract_z
     1  C          0.16376000       0.64415000       0.29327180
     2  C          0.33624000       0.35585000       0.79327180
     3  C          0.83624000       0.14415000       0.20672820
     4  C          0.66376000       0.85585000       0.70672820
     5  C          0.83624000       0.35585000       0.70672820
     6  C          0.66376000       0.64415000       0.20672820
     7  C          0.16376000       0.85585000       0.79327180
     8  C          0.33624000       0.14415000       0.29327180
     9  C          0.05206000       0.72836000       0.29622000
    10  C          0.44794000       0.27164000       0.79622000
    11  C          0.94794000       0.22836000       0.20378000
    12  C          0.55206000       0.77164000       0.70378000
    13  C          0.94794000       0.27164000       0.70378000
    14  C          0.55206000       0.72836000       0.20378000
    15  C          0.05206000       0.77164000       0.79622000
    16  C          0.44794000       0.22836000       0.29622000
    17  H          0.98340000       0.73160000       0.27050000
    18  H          0.51660000       0.26840000       0.77050000
    19  H          0.01660000       0.23160000       0.22950000
    20  H          0.48340000       0.76840000       0.72950000
    21  H          0.01660000       0.26840000       0.72950000
    22  H          0.48340000       0.73160000       0.22950000
    23  H          0.98340000       0.76840000       0.77050000
    24  H          0.51660000       0.23160000       0.27050000
    25  C          0.04195000       0.80985000       0.33845190
    26  C          0.45805000       0.19015000       0.83845190
    27  C          0.95805000       0.30985000       0.16154810
    28  C          0.54195000       0.69015000       0.66154810
    29  C          0.95805000       0.19015000       0.66154810
    30  C          0.54195000       0.80985000       0.16154810
    31  C          0.04195000       0.69015000       0.83845190
    32  C          0.45805000       0.30985000       0.33845190
    33  H          0.96680000       0.86870000       0.34110000
    34  H          0.53320000       0.13130000       0.84110000
    35  H          0.03320000       0.36870000       0.15890000
    36  H          0.46680000       0.63130000       0.65890000
    37  H          0.03320000       0.13130000       0.65890000
    38  H          0.46680000       0.86870000       0.15890000
    39  H          0.96680000       0.63130000       0.84110000
    40  H          0.53320000       0.36870000       0.34110000
    41  C          0.14384000       0.80244000       0.37608140
    42  C          0.35616000       0.19756000       0.87608140
    43  C          0.85616000       0.30244000       0.12391860
    44  C          0.64384000       0.69756000       0.62391860
    45  C          0.85616000       0.19756000       0.62391860
    46  C          0.64384000       0.80244000       0.12391860
    47  C          0.14384000       0.69756000       0.87608140
    48  C          0.35616000       0.30244000       0.37608140
    49  C          0.25655000       0.71924000       0.37148160
    50  C          0.24345000       0.28076000       0.87148160
    51  C          0.74345000       0.21924000       0.12851840
    52  C          0.75655000       0.78076000       0.62851840
    53  C          0.74345000       0.28076000       0.62851840
    54  C          0.75655000       0.71924000       0.12851840
    55  C          0.25655000       0.78076000       0.87148160
    56  C          0.24345000       0.21924000       0.37148160
    57  H          0.32620000       0.71630000       0.39680000
    58  H          0.17380000       0.28370000       0.89680000
    59  H          0.67380000       0.21630000       0.10320000
    60  H          0.82620000       0.78370000       0.60320000
    61  H          0.67380000       0.28370000       0.60320000
    62  H          0.82620000       0.71630000       0.10320000
    63  H          0.32620000       0.78370000       0.89680000
    64  H          0.17380000       0.21630000       0.39680000
    65  C          0.26846000       0.63925000       0.32948180
    66  C          0.23154000       0.36075000       0.82948180
    67  C          0.73154000       0.13925000       0.17051820
    68  C          0.76846000       0.86075000       0.67051820
    69  C          0.73154000       0.36075000       0.67051820
    70  C          0.76846000       0.63925000       0.17051820
    71  C          0.26846000       0.86075000       0.82948180
    72  C          0.23154000       0.13925000       0.32948180
    73  H          0.34600000       0.58330000       0.32600000
    74  H          0.15400000       0.41670000       0.82600000
    75  H          0.65400000       0.08330000       0.17400000
    76  H          0.84600000       0.91670000       0.67400000
    77  H          0.65400000       0.41670000       0.67400000
    78  H          0.84600000       0.58330000       0.17400000
    79  H          0.34600000       0.91670000       0.82600000
    80  H          0.15400000       0.08330000       0.32600000
    81  C          0.15124000       0.72534000       0.50360140
    82  C          0.34876000       0.27466000       0.00360140
    83  C          0.84876000       0.22534000      -0.00360140
    84  C          0.65124000       0.77466000       0.49639860
    85  C          0.84876000       0.27466000       0.49639860
    86  C          0.65124000       0.72534000      -0.00360140
    87  C          0.15124000       0.77466000       0.00360140
    88  C          0.34876000       0.22534000       0.50360140
    89  C          0.13435000       0.54765000       0.56420180
    90  C          0.36565000       0.45235000       0.06420180
    91  C          0.86565000       0.04765000       0.93579820
    92  C          0.63435000       0.95235000       0.43579820
    93  C          0.86565000       0.45235000       0.43579820
    94  C          0.63435000       0.54765000       0.93579820
    95  C          0.13435000       0.95235000       0.06420180
    96  C          0.36565000       0.04765000       0.56420180
    97  H          0.23680000       0.54400000       0.55800000
    98  H          0.26320000       0.45600000       0.05800000
    99  H          0.76320000       0.04400000       0.94200000
   100  H          0.73680000       0.95600000       0.44200000
   101  H          0.76320000       0.45600000       0.44200000
   102  H          0.73680000       0.54400000       0.94200000
   103  H          0.23680000       0.95600000       0.05800000
   104  H          0.26320000       0.04400000       0.55800000
   105  H          0.09400000       0.46430000       0.55480000
   106  H          0.40600000       0.53570000       0.05480000
   107  H          0.90600000       0.96430000       0.94520000
   108  H          0.59400000       0.03570000       0.44520000
   109  H          0.90600000       0.53570000       0.44520000
   110  H          0.59400000       0.46430000       0.94520000
   111  H          0.09400000       0.03570000       0.05480000
   112  H          0.40600000       0.96430000       0.55480000
   113  C          0.10959000       0.56957000       0.61933000
   114  C          0.39041000       0.43043000       0.11933000
   115  C          0.89041000       0.06957000       0.88067000
   116  C          0.60959000       0.93043000       0.38067000
   117  C          0.89041000       0.43043000       0.38067000
   118  C          0.60959000       0.56957000       0.88067000
   119  C          0.10959000       0.93043000       0.11933000
   120  C          0.39041000       0.06957000       0.61933000
   121  H          0.00890000       0.55270000       0.62600000
   122  H          0.49110000       0.44730000       0.12600000
   123  H         -0.00890000       0.05270000       0.87400000
   124  H          0.50890000       0.94730000       0.37400000
   125  H         -0.00890000       0.44730000       0.37400000
   126  H          0.50890000       0.55270000       0.87400000
   127  H          0.00890000       0.94730000       0.12600000
   128  H          0.49110000       0.05270000       0.62600000
   129  H          0.16390000       0.50450000       0.63770000
   130  H          0.33610000       0.49550000       0.13770000
   131  H          0.83610000       0.00450000       0.86230000
   132  H          0.66390000      -0.00450000       0.36230000
   133  H          0.83610000       0.49550000       0.36230000
   134  H          0.66390000       0.50450000       0.86230000
   135  H          0.16390000      -0.00450000       0.13770000
   136  H          0.33610000       0.00450000       0.63770000
   137  C          0.14371000       0.69398000       0.64133000
   138  C          0.35629000       0.30602000       0.14133000
   139  C          0.85629000       0.19398000       0.85867000
   140  C          0.64371000       0.80602000       0.35867000
   141  C          0.85629000       0.30602000       0.35867000
   142  C          0.64371000       0.69398000       0.85867000
   143  C          0.14371000       0.80602000       0.14133000
   144  C          0.35629000       0.19398000       0.64133000
   145  H          0.24410000       0.71140000       0.63690000
   146  H          0.25590000       0.28860000       0.13690000
   147  H          0.75590000       0.21140000       0.86310000
   148  H          0.74410000       0.78860000       0.36310000
   149  H          0.75590000       0.28860000       0.36310000
   150  H          0.74410000       0.71140000       0.86310000
   151  H          0.24410000       0.78860000       0.13690000
   152  H          0.25590000       0.21140000       0.63690000
   153  H          0.12120000       0.69290000       0.67700000
   154  H          0.37880000       0.30710000       0.17700000
   155  H          0.87880000       0.19290000       0.82300000
   156  H          0.62120000       0.80710000       0.32300000
   157  H          0.87880000       0.30710000       0.32300000
   158  H          0.62120000       0.69290000       0.82300000
   159  H          0.12120000       0.80710000       0.17700000
   160  H          0.37880000       0.19290000       0.67700000
   161  H          0.08850000       0.76010000       0.62480000
   162  H          0.41150000       0.23990000       0.12480000
   163  H          0.91150000       0.26010000       0.87520000
   164  H          0.58850000       0.73990000       0.37520000
   165  H          0.91150000       0.23990000       0.37520000
   166  H          0.58850000       0.76010000       0.87520000
   167  H          0.08850000       0.73990000       0.12480000
   168  H          0.41150000       0.26010000       0.62480000
   169  N          0.07063000       0.81503000       0.47570120
   170  N          0.42937000       0.18497000       0.97570120
   171  N          0.92937000       0.31503000       0.02429880
   172  N          0.57063000       0.68497000       0.52429880
   173  N          0.92937000       0.18497000       0.52429880
   174  N          0.57063000       0.81503000       0.02429880
   175  N          0.07063000       0.68497000       0.97570120
   176  N          0.42937000       0.31503000       0.47570120
   177  H          0.98150000       0.82300000       0.48360000
   178  H          0.51850000       0.17700000       0.98360000
   179  H          0.01850000       0.32300000       0.01640000
   180  H          0.48150000       0.67700000       0.51640000
   181  H          0.01850000       0.17700000       0.51640000
   182  H          0.48150000       0.82300000       0.01640000
   183  H          0.98150000       0.67700000       0.98360000
   184  H          0.51850000       0.32300000       0.48360000
   185  N          0.07183000       0.64713000       0.53210130
   186  N          0.42817000       0.35287000       0.03210130
   187  N          0.92817000       0.14713000       0.96789870
   188  N          0.57183000       0.85287000       0.46789870
   189  N          0.92817000       0.35287000       0.46789870
   190  N          0.57183000       0.64713000       0.96789870
   191  N          0.07183000       0.85287000       0.03210130
   192  N          0.42817000       0.14713000       0.53210130
   193  H          0.98010000       0.65570000       0.53150000
   194  H          0.51990000       0.34430000       0.03150000
   195  H          0.01990000       0.15570000       0.96850000
   196  H          0.48010000       0.84430000       0.46850000
   197  H          0.01990000       0.34430000       0.46850000
   198  H          0.48010000       0.65570000       0.96850000
   199  H          0.98010000       0.84430000       0.03150000
   200  H          0.51990000       0.15570000       0.53150000
   201  O          0.01953000      -0.00447000       0.41986110
   202  O          0.48047000       0.00447000       0.91986110
   203  O          0.98047000       0.49553000       0.08013890
   204  O          0.51953000       0.50447000       0.58013890
   205  O          0.98047000       0.00447000       0.58013890
   206  O          0.51953000      -0.00447000       0.08013890
   207  O          0.01953000       0.50447000       0.91986110
   208  O          0.48047000       0.49553000       0.41986110
   209  O          0.27093000       0.95013000       0.44145110
   210  O          0.22907000       0.04987000       0.94145110
   211  O          0.72907000       0.45013000       0.05854890
   212  O          0.77093000       0.54987000       0.55854890
   213  O          0.72907000       0.04987000       0.55854890
   214  O          0.77093000       0.95013000       0.05854890
   215  O          0.27093000       0.54987000       0.94145110
   216  O          0.22907000       0.45013000       0.44145110
   217  O          0.28213000       0.72283000       0.50048110
   218  O          0.21787000       0.27717000       0.00048110
   219  O          0.71787000       0.22283000      -0.00048110
   220  O          0.78213000       0.77717000       0.49951890
   221  O          0.71787000       0.27717000       0.49951890
   222  O          0.78213000       0.72283000      -0.00048110
   223  O          0.28213000       0.77717000       0.00048110
   224  O          0.21787000       0.22283000       0.50048110
   225  S          0.13079100       0.90580900       0.42946400
   226  S          0.36920900       0.09419100       0.92946400
   227  S          0.86920900       0.40580900       0.07053600
   228  S          0.63079100       0.59419100       0.57053600
   229  S          0.86920900       0.09419100       0.57053600
   230  S          0.63079100       0.90580900       0.07053600
   231  S          0.13079100       0.59419100       0.92946400
   232  S          0.36920900       0.40580900       0.42946400
   233  Cl         0.17752000       0.54007180       0.24117600
   234  Cl         0.32248000       0.45992820       0.74117600
   235  Cl         0.82248000       0.04007180       0.25882400
   236  Cl         0.67752000       0.95992820       0.75882400
   237  Cl         0.82248000       0.45992820       0.75882400
   238  Cl         0.67752000       0.54007180       0.25882400
   239  Cl         0.17752000       0.95992820       0.74117600
   240  Cl         0.32248000       0.04007180       0.24117600
