data_BELBUP02
_symmetry_space_group_name_H-M    'P1'
_symmetry_Int_Tables_number       1
loop_
_symmetry_equiv_pos_site_id
_symmetry_equiv_pos_as_xyz
1 x,y,z
_cell_length_a                   3.748701
_cell_length_b                   20.88815
_cell_length_c                   7.09822
_cell_angle_alpha                90.0
_cell_angle_beta                 96.25701
_cell_angle_gamma                90.0
loop_
_atom_site_label
_atom_site_type_symbol
_atom_site_fract_x
_atom_site_fract_y
_atom_site_fract_z
     1  O          0.22372000       0.77612400       0.91123870
     2  O          0.77628000       0.27612400       0.58876130
     3  O          0.77628000       0.22387600       0.08876130
     4  O          0.22372000       0.72387600       0.41123870
     5  H          0.38360000       0.74581000       0.86370000
     6  H          0.61640000       0.24581000       0.63630000
     7  H          0.61640000       0.25419000       0.13630000
     8  H          0.38360000       0.75419000       0.36370000
     9  N          0.42233000       0.82999500       0.95153860
    10  N          0.57767000       0.32999500       0.54846140
    11  N          0.57767000       0.17000500       0.04846140
    12  N          0.42233000       0.67000500       0.45153860
    13  N          0.44303000       0.87555500       0.81920860
    14  N          0.55697000       0.37555500       0.68079140
    15  N          0.55697000       0.12444500       0.18079140
    16  N          0.44303000       0.62444500       0.31920860
    17  N          0.62553000       0.92396500       0.89746860
    18  N          0.37447000       0.42396500       0.60253140
    19  N          0.37447000       0.07603500       0.10253140
    20  N          0.62553000       0.57603500       0.39746860
    21  N          0.61913000       0.81746500       0.28868140
    22  N          0.38087000       0.31746500       0.21131860
    23  N          0.38087000       0.18253500       0.71131860
    24  N          0.61913000       0.68253500       0.78868140
    25  C          0.58743000       0.84852500       0.12209160
    26  C          0.41257000       0.34852500       0.37790840
    27  C          0.41257000       0.15147500       0.87790840
    28  C          0.58743000       0.65147500       0.62209160
    29  C          0.72003000       0.90932500       0.08562160
    30  C          0.27997000       0.40932500       0.41437840
    31  C          0.27997000       0.09067500       0.91437840
    32  C          0.72003000       0.59067500       0.58562160
    33  C          0.91163000       0.94309600       0.23475170
    34  C          0.08837000       0.44309600       0.26524830
    35  C          0.08837000       0.05690400       0.76524830
    36  C          0.91163000       0.55690400       0.73475170
    37  H          0.01740000       0.98528000       0.21420000
    38  H         -0.01740000       0.48528000       0.28580000
    39  H         -0.01740000       0.01472000       0.78580000
    40  H          0.01740000       0.51472000       0.71420000
    41  C          0.95013000       0.91210600       0.40734170
    42  C          0.04987000       0.41210600       0.09265830
    43  C          0.04987000       0.08789400       0.59265830
    44  C          0.95013000       0.58789400       0.90734170
    45  H          0.08140000       0.93058000       0.51720000
    46  H          0.91860000       0.43058000      -0.01720000
    47  H          0.91860000       0.06942000       0.48280000
    48  H          0.08140000       0.56942000       0.01720000
    49  C          0.80293000       0.85071600       0.42819170
    50  C          0.19707000       0.35071600       0.07180830
    51  C          0.19707000       0.14928400       0.57180830
    52  C          0.80293000       0.64928400       0.92819170
    53  H          0.83140000       0.83098000       0.54620000
    54  H          0.16860000       0.33098000       0.95380000
    55  H          0.16860000       0.16902000       0.45380000
    56  H          0.83140000       0.66902000       0.04620000
