data_BELBUP
_symmetry_space_group_name_H-M    'P1'
_symmetry_Int_Tables_number       1
loop_
_symmetry_equiv_pos_site_id
_symmetry_equiv_pos_as_xyz
1 x,y,z
_cell_length_a                   22.0914
_cell_length_b                   3.99401
_cell_length_c                   14.2943
_cell_angle_alpha                90.0
_cell_angle_beta                 114.833
_cell_angle_gamma                90.0
loop_
_atom_site_label
_atom_site_type_symbol
_atom_site_fract_x
_atom_site_fract_y
_atom_site_fract_z
     1  C          0.39516600       0.22933000       0.17069800
     2  C          0.89516600       0.72933000       0.17069800
     3  C          0.60483400       0.22933000       0.32930200
     4  C          0.10483400       0.72933000       0.32930200
     5  C          0.60483400       0.77067000       0.82930200
     6  C          0.10483400       0.27067000       0.82930200
     7  C          0.39516600       0.77067000       0.67069800
     8  C          0.89516600       0.27067000       0.67069800
     9  C          0.33768600       0.40443000       0.11011900
    10  C          0.83768600       0.90443000       0.11011900
    11  C          0.66231400       0.40443000       0.38988100
    12  C          0.16231400       0.90443000       0.38988100
    13  C          0.66231400       0.59557000       0.88988100
    14  C          0.16231400       0.09557000       0.88988100
    15  C          0.33768600       0.59557000       0.61011900
    16  C          0.83768600       0.09557000       0.61011900
    17  C          0.30172600       0.56164000       0.15811100
    18  C          0.80172600       0.06164000       0.15811100
    19  C          0.69827400       0.56164000       0.34188900
    20  C          0.19827400       0.06164000       0.34188900
    21  C          0.69827400       0.43836000       0.84188900
    22  C          0.19827400       0.93836000       0.84188900
    23  C          0.30172600       0.43836000       0.65811100
    24  C          0.80172600       0.93836000       0.65811100
    25  H          0.26263600       0.68004000       0.12123100
    26  H          0.76263600       0.18004000       0.12123100
    27  H          0.73736400       0.68004000       0.37876900
    28  H          0.23736400       0.18004000       0.37876900
    29  H          0.73736400       0.31996000       0.87876900
    30  H          0.23736400       0.81996000       0.87876900
    31  H          0.26263600       0.31996000       0.62123100
    32  H          0.76263600       0.81996000       0.62123100
    33  C          0.32805600       0.52924000       0.26358100
    34  C          0.82805600       0.02924000       0.26358100
    35  C          0.67194400       0.52924000       0.23641900
    36  C          0.17194400       0.02924000       0.23641900
    37  C          0.67194400       0.47076000       0.73641900
    38  C          0.17194400      -0.02924000       0.73641900
    39  C          0.32805600       0.47076000       0.76358100
    40  C          0.82805600      -0.02924000       0.76358100
    41  H          0.30609600       0.62684000       0.29973100
    42  H          0.80609600       0.12684000       0.29973100
    43  H          0.69390400       0.62684000       0.20026900
    44  H          0.19390400       0.12684000       0.20026900
    45  H          0.69390400       0.37316000       0.70026900
    46  H          0.19390400       0.87316000       0.70026900
    47  H          0.30609600       0.37316000       0.79973100
    48  H          0.80609600       0.87316000       0.79973100
    49  C          0.38741600       0.35194000       0.31766900
    50  C          0.88741600       0.85194000       0.31766900
    51  C          0.61258400       0.35194000       0.18233100
    52  C          0.11258400       0.85194000       0.18233100
    53  C          0.61258400       0.64806000       0.68233100
    54  C          0.11258400       0.14806000       0.68233100
    55  C          0.38741600       0.64806000       0.81766900
    56  C          0.88741600       0.14806000       0.81766900
    57  H          0.40346600       0.34064000       0.38904900
    58  H          0.90346600       0.84064000       0.38904900
    59  H          0.59653400       0.34064000       0.11095100
    60  H          0.09653400       0.84064000       0.11095100
    61  H          0.59653400       0.65936000       0.61095100
    62  H          0.09653400       0.15936000       0.61095100
    63  H          0.40346600       0.65936000       0.88904900
    64  H          0.90346600       0.15936000       0.88904900
    65  O          0.46603500       0.87927000       0.11836800
    66  O          0.96603500       0.37927000       0.11836800
    67  O          0.53396500       0.87927000       0.38163200
    68  O          0.03396500       0.37927000       0.38163200
    69  O          0.53396500       0.12073000       0.88163200
    70  O          0.03396500       0.62073000       0.88163200
    71  O          0.46603500       0.12073000       0.61836800
    72  O          0.96603500       0.62073000       0.61836800
    73  H          0.50701000      -0.00655400       0.15691500
    74  H          0.00701000       0.49344600       0.15691500
    75  H          0.49299000      -0.00655400       0.34308500
    76  H         -0.00701000       0.49344600       0.34308500
    77  H          0.49299000       0.00655400       0.84308500
    78  H         -0.00701000       0.50655400       0.84308500
    79  H          0.50701000       0.00655400       0.65691500
    80  H          0.00701000       0.50655400       0.65691500
    81  N          0.41644500       0.10313000       0.10192800
    82  N          0.91644500       0.60313000       0.10192800
    83  N          0.58355500       0.10313000       0.39807200
    84  N          0.08355500       0.60313000       0.39807200
    85  N          0.58355500       0.89687000       0.89807200
    86  N          0.08355500       0.39687000       0.89807200
    87  N          0.41644500       0.89687000       0.60192800
    88  N          0.91644500       0.39687000       0.60192800
    89  N          0.37538600       0.19173000       0.00531800
    90  N          0.87538600       0.69173000       0.00531800
    91  N          0.62461400       0.19173000       0.49468200
    92  N          0.12461400       0.69173000       0.49468200
    93  N          0.62461400       0.80827000      -0.00531800
    94  N          0.12461400       0.30827000      -0.00531800
    95  N          0.37538600       0.80827000       0.50531800
    96  N          0.87538600       0.30827000       0.50531800
    97  N          0.32733600       0.37623000       0.00851800
    98  N          0.82733600       0.87623000       0.00851800
    99  N          0.67266400       0.37623000       0.49148200
   100  N          0.17266400       0.87623000       0.49148200
   101  N          0.67266400       0.62377000      -0.00851800
   102  N          0.17266400       0.12377000      -0.00851800
   103  N          0.32733600       0.62377000       0.50851800
   104  N          0.82733600       0.12377000       0.50851800
   105  N          0.42236500       0.19853000       0.27352700
   106  N          0.92236500       0.69853000       0.27352700
   107  N          0.57763500       0.19853000       0.22647300
   108  N          0.07763500       0.69853000       0.22647300
   109  N          0.57763500       0.80147000       0.72647300
   110  N          0.07763500       0.30147000       0.72647300
   111  N          0.42236500       0.80147000       0.77352700
   112  N          0.92236500       0.30147000       0.77352700
