data_BELBUP03
_symmetry_space_group_name_H-M    'P1'
_symmetry_Int_Tables_number       1
loop_
_symmetry_equiv_pos_site_id
_symmetry_equiv_pos_as_xyz
1 x,y,z
_cell_length_a                   20.259317
_cell_length_b                   4.07823
_cell_length_c                   6.82784
_cell_angle_alpha                90.0
_cell_angle_beta                 90.0
_cell_angle_gamma                90.0
loop_
_atom_site_label
_atom_site_type_symbol
_atom_site_fract_x
_atom_site_fract_y
_atom_site_fract_z
     1  O          0.28876110       0.29266000       0.01369000
     2  O          0.21123890       0.29266000       0.51369000
     3  O          0.78876110       0.70734000       0.01369000
     4  O          0.71123890       0.70734000       0.51369000
     5  N          0.31021140       0.91157000       0.63494000
     6  N          0.18978860       0.91157000       0.13494000
     7  N          0.81021140       0.08843000       0.63494000
     8  N          0.68978860       0.08843000       0.13494000
     9  N          0.43601150       0.87608000      -0.00335000
    10  N          0.06398850       0.87608000       0.49665000
    11  N          0.93601150       0.12392000      -0.00335000
    12  N          0.56398850       0.12392000       0.49665000
    13  N          0.39182150       0.06078000       0.08375000
    14  N          0.10817850       0.06078000       0.58375000
    15  N          0.89182150       0.93922000       0.08375000
    16  N          0.60817850       0.93922000       0.58375000
    17  N          0.33973140       0.09066000       0.96374000
    18  N          0.16026860       0.09066000       0.46374000
    19  N          0.83973140       0.90934000       0.96374000
    20  N          0.66026860       0.90934000       0.46374000
    21  C          0.33647190       0.73069000       0.49187000
    22  C          0.16352810       0.73069000      -0.00813000
    23  C          0.83647190       0.26931000       0.49187000
    24  C          0.66352810       0.26931000      -0.00813000
    25  C          0.39842000       0.57819000       0.50037000
    26  C          0.10158000       0.57819000       0.00037000
    27  C          0.89842000       0.42181000       0.50037000
    28  C          0.60158000       0.42181000       0.00037000
    29  C          0.43764190       0.60369000       0.66367000
    30  C          0.06235810       0.60369000       0.16367000
    31  C          0.93764190       0.39631000       0.66367000
    32  C          0.56235810       0.39631000       0.16367000
    33  C          0.41186150       0.79228000       0.81606000
    34  C          0.08813850       0.79228000       0.31606000
    35  C          0.91186150       0.20772000       0.81606000
    36  C          0.58813850       0.20772000       0.31606000
    37  C          0.34956160       0.93228000       0.79306000
    38  C          0.15043840       0.93228000       0.29306000
    39  C          0.84956160       0.06772000       0.79306000
    40  C          0.65043840       0.06772000       0.29306000
    41  H          0.31180000       0.70380000       0.37800000
    42  H          0.18820000       0.70380000       0.87800000
    43  H          0.81180000       0.29620000       0.37800000
    44  H          0.68820000       0.29620000       0.87800000
    45  H          0.41320000       0.45750000       0.39330000
    46  H          0.08680000       0.45750000       0.89330000
    47  H          0.91320000       0.54250000       0.39330000
    48  H          0.58680000       0.54250000       0.89330000
    49  H          0.47860000       0.50200000       0.67210000
    50  H          0.02140000       0.50200000       0.17210000
    51  H          0.97860000       0.49800000       0.67210000
    52  H          0.52140000       0.49800000       0.17210000
    53  H          0.25620000       0.18200000       0.04020000
    54  H          0.24380000       0.18200000       0.54020000
    55  H          0.75620000       0.81800000       0.04020000
    56  H          0.74380000       0.81800000       0.54020000
