data_BENCLN05
_symmetry_space_group_name_H-M    'P1'
_symmetry_Int_Tables_number       1
loop_
_symmetry_equiv_pos_site_id
_symmetry_equiv_pos_as_xyz
1 x,y,z
_cell_length_a                   8.911
_cell_length_b                   6.8705
_cell_length_c                   12.981
_cell_angle_alpha                90.0
_cell_angle_beta                 96.155
_cell_angle_gamma                90.0
loop_
_atom_site_label
_atom_site_type_symbol
_atom_site_fract_x
_atom_site_fract_y
_atom_site_fract_z
     1  Cl         0.41473160       0.21995200       0.92925900
     2  Cl         0.58526840       0.71995200       0.57074100
     3  Cl         0.58526840       0.78004800       0.07074100
     4  Cl         0.41473160       0.28004800       0.42925900
     5  C          0.31615000       0.38647000      -0.00393000
     6  C          0.68385000       0.88647000       0.50393000
     7  C          0.68385000       0.61353000       0.00393000
     8  C          0.31615000       0.11353000       0.49607000
     9  C          0.30195000       0.35976000       0.10083000
    10  C          0.69805000       0.85976000       0.39917000
    11  C          0.69805000       0.64024000       0.89917000
    12  C          0.30195000       0.14024000       0.60083000
    13  C          0.21825000       0.48396000       0.15433000
    14  C          0.78175000      -0.01604000       0.34567000
    15  C          0.78175000       0.51604000       0.84567000
    16  C          0.21825000       0.01604000       0.65433000
    17  C          0.14765000       0.63857000       0.09973000
    18  C          0.85235000       0.13857000       0.40027000
    19  C          0.85235000       0.36143000       0.90027000
    20  C          0.14765000       0.86143000       0.59973000
    21  C          0.15965000       0.66927000      -0.00404000
    22  C          0.84035000       0.16927000       0.50404000
    23  C          0.84035000       0.33073000       0.00404000
    24  C          0.15965000       0.83073000       0.49596000
    25  C          0.24376000       0.54217000       0.94417000
    26  C          0.75624000       0.04217000       0.55583000
    27  C          0.75624000       0.45783000       0.05583000
    28  C          0.24376000       0.95783000       0.44417000
    29  N          0.37705000       0.19366000       0.15533000
    30  N          0.62295000       0.69366000       0.34467000
    31  N          0.62295000       0.80634000       0.84467000
    32  N          0.37705000       0.30634000       0.65533000
    33  N          0.05224000       0.76826000       0.15473000
    34  N          0.94776000       0.26826000       0.34527000
    35  N          0.94776000       0.23174000       0.84527000
    36  N          0.05224000       0.73174000       0.65473000
    37  O          0.51265000       0.19207000       0.17233000
    38  O          0.48735000       0.69207000       0.32767000
    39  O          0.48735000       0.80793000       0.82767000
    40  O          0.51265000       0.30793000       0.67233000
    41  O          0.29495000       0.06807000       0.18404000
    42  O          0.70505000       0.56807000       0.31596000
    43  O          0.70505000       0.93193000       0.81596000
    44  O          0.29495000       0.43193000       0.68404000
    45  O          0.06135000       0.75666000       0.24923000
    46  O          0.93865000       0.25666000       0.25077000
    47  O          0.93865000       0.24334000       0.75077000
    48  O          0.06135000       0.74334000       0.74923000
    49  O          0.96656000       0.87766000       0.10363000
    50  O          0.03344000       0.37766000       0.39637000
    51  O          0.03344000       0.12234000       0.89637000
    52  O          0.96656000       0.62234000       0.60363000
    53  H          0.20700000       0.46300000       0.23600000
    54  H          0.79300000       0.96300000       0.26400000
    55  H          0.79300000       0.53700000       0.76400000
    56  H          0.20700000       0.03700000       0.73600000
    57  H          0.10400000       0.79100000       0.95600000
    58  H          0.89600000       0.29100000       0.54400000
    59  H          0.89600000       0.20900000       0.04400000
    60  H          0.10400000       0.70900000       0.45600000
    61  H          0.25300000       0.56300000       0.86300000
    62  H          0.74700000       0.06300000       0.63700000
    63  H          0.74700000       0.43700000       0.13700000
    64  H          0.25300000       0.93700000       0.36300000
