data_BENCLN06
_symmetry_space_group_name_H-M    'P1'
_symmetry_Int_Tables_number       1
loop_
_symmetry_equiv_pos_site_id
_symmetry_equiv_pos_as_xyz
1 x,y,z
_cell_length_a                   7.77784
_cell_length_b                   12.78737
_cell_length_c                   15.34988
_cell_angle_alpha                90.0
_cell_angle_beta                 101.7872
_cell_angle_gamma                90.0
loop_
_atom_site_label
_atom_site_type_symbol
_atom_site_fract_x
_atom_site_fract_y
_atom_site_fract_z
     1  Cl         0.95600600       0.07222300       0.57969300
     2  Cl         0.54399400       0.57222300       0.92030700
     3  Cl         0.04399400       0.92777700       0.42030700
     4  Cl         0.45600600       0.42777700       0.07969300
     5  O          0.73339170       0.12961100       0.41668800
     6  O          0.76660830       0.62961100       0.08331200
     7  O          0.26660830       0.87038900       0.58331200
     8  O          0.23339170       0.37038900       0.91668800
     9  O          0.68558170       0.29144100       0.37914800
    10  O          0.81441830       0.79144100       0.12085200
    11  O          0.31441830       0.70855900       0.62085200
    12  O          0.18558170       0.20855900       0.87914800
    13  O          0.62986170       0.54871100       0.59042900
    14  O          0.87013830       0.04871100       0.90957100
    15  O          0.37013830       0.45128900       0.40957100
    16  O          0.12986170       0.95128900       0.09042900
    17  O          0.72572000       0.52109120       0.73080900
    18  O          0.77428000       0.02109120       0.76919100
    19  O          0.27428000       0.47890880       0.26919100
    20  O          0.22572000       0.97890880       0.23080900
    21  N          0.72940180       0.22252110       0.43467900
    22  N          0.77059820       0.72252110       0.06532100
    23  N          0.27059820       0.77747890       0.56532100
    24  N          0.22940180       0.27747890       0.93467900
    25  N          0.70099190       0.49406110       0.65332100
    26  N          0.79900810      -0.00593890       0.84667900
    27  N          0.29900810       0.50593890       0.34667900
    28  N          0.20099190       0.00593890       0.15332100
    29  C          0.87342000       0.19322130       0.59644110
    30  C          0.62658000       0.69322130       0.90355890
    31  C          0.12658000       0.80677870       0.40355890
    32  C          0.37342000       0.30677870       0.09644110
    33  C          0.77672000       0.25523130       0.52861110
    34  C          0.72328000       0.75523130       0.97138890
    35  C          0.22328000       0.74476870       0.47138890
    36  C          0.27672000       0.24476870       0.02861110
    37  C          0.72062000       0.35424130       0.54720110
    38  C          0.77938000       0.85424130       0.95279890
    39  C          0.27938000       0.64575870       0.45279890
    40  C          0.22062000       0.14575870       0.04720110
    41  H          0.65635900       0.39699400       0.50121100
    42  H          0.84364100       0.89699400      -0.00121100
    43  H          0.34364100       0.60300600       0.49878900
    44  H          0.15635900       0.10300600       0.00121100
    45  C          0.76012000       0.38899130       0.63374110
    46  C          0.73988000       0.88899130       0.86625890
    47  C          0.23988000       0.61100870       0.36625890
    48  C          0.26012000       0.11100870       0.13374110
    49  C          0.85542000       0.32969130       0.70282110
    50  C          0.64458000       0.82969130       0.79717890
    51  C          0.14458000       0.67030870       0.29717890
    52  C          0.35542000       0.17030870       0.20282110
    53  H          0.88084000       0.35565800       0.76204700
    54  H          0.61916000       0.85565800       0.73795300
    55  H          0.11916000       0.64434200       0.23795300
    56  H          0.38084000       0.14434200       0.26204700
    57  C          0.91202000       0.23183140       0.68295110
    58  C          0.58798000       0.73183140       0.81704890
    59  C          0.08798000       0.76816860       0.31704890
    60  C          0.41202000       0.26816860       0.18295110
    61  H         -0.02156600       0.19022700       0.72911100
    62  H          0.52156600       0.69022700       0.77088900
    63  H          0.02156600       0.80977300       0.27088900
    64  H          0.47843400       0.30977300       0.22911100
    65  Cl         0.46715600       0.08033300       0.59433300
    66  Cl         0.03284400       0.58033300       0.90566700
    67  Cl         0.53284400       0.91966700       0.40566700
    68  Cl         0.96715600       0.41966700       0.09433300
    69  O          0.36013170       0.18687110       0.42173800
    70  O          0.13986830       0.68687110       0.07826200
    71  O          0.63986830       0.81312890       0.57826200
    72  O          0.86013170       0.31312890       0.92173800
    73  O          0.08877160       0.23095110       0.41477800
    74  O          0.41122840       0.73095110       0.08522200
    75  O          0.91122840       0.76904890       0.58522200
    76  O          0.58877160       0.26904890       0.91477800
    77  O          0.06299160       0.53105100       0.61171900
    78  O          0.43700840       0.03105100       0.88828100
    79  O          0.93700840       0.46894900       0.38828100
    80  O          0.56299160       0.96894900       0.11171900
    81  O          0.24192000       0.53495100       0.74003900
    82  O          0.25808000       0.03495100       0.75996100
    83  O          0.75808000       0.46504900       0.25996100
    84  O          0.74192000       0.96504900       0.24003900
    85  N          0.24175190       0.22246120       0.45396900
    86  N          0.25824810       0.72246120       0.04603100
    87  N          0.75824810       0.77753880       0.54603100
    88  N          0.74175190       0.27753880       0.95396900
    89  N          0.18337190       0.49452110       0.66834100
    90  N          0.31662810      -0.00547890       0.83165900
    91  N          0.81662810       0.50547890       0.33165900
    92  N          0.68337190       0.00547890       0.16834100
    93  C          0.39182000       0.20240130       0.61356110
    94  C          0.10818000       0.70240130       0.88643890
    95  C          0.60818000       0.79759870       0.38643890
    96  C          0.89182000       0.29759870       0.11356110
    97  C          0.28492000       0.26022130       0.54641100
    98  C          0.21508000       0.76022130       0.95358900
    99  C          0.71508000       0.73977870       0.45358900
   100  C          0.78492000       0.23977870       0.04641100
   101  C          0.21422000       0.35550130       0.56306110
   102  C          0.28578000       0.85550130       0.93693890
   103  C          0.78578000       0.64449870       0.43693890
   104  C          0.71422000       0.14449870       0.06306110
   105  H          0.13798100       0.39297700       0.51738800
   106  H          0.36201900       0.89297700       0.98261200
   107  H          0.86201900       0.60702300       0.48261200
   108  H          0.63798100       0.10702300       0.01738800
   109  C          0.25862000       0.39406130       0.64877110
   110  C          0.24138000       0.89406130       0.85122890
   111  C          0.74138000       0.60593870       0.35122890
   112  C          0.75862000       0.10593870       0.14877110
   113  C          0.36702000       0.34004130       0.71731110
   114  C          0.13298000       0.84004130       0.78268890
   115  C          0.63298000       0.65995870       0.28268890
   116  C          0.86702000       0.15995870       0.21731110
   117  H          0.39679400       0.36912400       0.77539700
   118  H          0.10320600       0.86912400       0.72460300
   119  H          0.60320600       0.63087600       0.22460300
   120  H          0.89679400       0.13087600       0.27539700
   121  C          0.43052000       0.24324130       0.69932110
   122  C          0.06948000       0.74324130       0.80067890
   123  C          0.56948000       0.75675870       0.30067890
   124  C          0.93052000       0.25675870       0.19932110
   125  H          0.50128000       0.20422600       0.74591900
   126  H         -0.00128000       0.70422600       0.75408100
   127  H          0.49872000       0.79577400       0.25408100
   128  H          0.00128000       0.29577400       0.24591900
