data_BENCLN02
_symmetry_space_group_name_H-M    'P1'
_symmetry_Int_Tables_number       1
loop_
_symmetry_equiv_pos_site_id
_symmetry_equiv_pos_as_xyz
1 x,y,z
_cell_length_a                   8.734612
_cell_length_b                   10.94044
_cell_length_c                   15.64065
_cell_angle_alpha                90.0
_cell_angle_beta                 90.0
_cell_angle_gamma                90.0
loop_
_atom_site_label
_atom_site_type_symbol
_atom_site_fract_x
_atom_site_fract_y
_atom_site_fract_z
     1  Cl         0.26764500       0.04752300       0.93220800
     2  Cl         0.23235500       0.45247700       0.93220800
     3  Cl         0.76764500       0.95247700       0.56779200
     4  Cl         0.73235500       0.54752300       0.56779200
     5  Cl         0.73235500       0.95247700       0.06779200
     6  Cl         0.76764500       0.54752300       0.06779200
     7  Cl         0.23235500       0.04752300       0.43220800
     8  Cl         0.26764500       0.45247700       0.43220800
     9  C          0.35728160       0.10736110       0.02063700
    10  C          0.14271840       0.39263890       0.02063700
    11  C          0.85728160       0.89263890       0.47936300
    12  C          0.64271840       0.60736110       0.47936300
    13  C          0.64271840       0.89263890       0.97936300
    14  C          0.85728160       0.60736110       0.97936300
    15  C          0.14271840       0.10736110       0.52063700
    16  C          0.35728160       0.39263890       0.52063700
    17  C          0.31762150       0.07424100       0.10415700
    18  C          0.18237850       0.42575900       0.10415700
    19  C          0.81762150       0.92575900       0.39584300
    20  C          0.68237850       0.57424100       0.39584300
    21  C          0.68237850       0.92575900       0.89584300
    22  C          0.81762150       0.57424100       0.89584300
    23  C          0.18237850       0.07424100       0.60415700
    24  C          0.31762150       0.42575900       0.60415700
    25  C          0.38079160       0.13228110       0.17471600
    26  C          0.11920840       0.36771890       0.17471600
    27  C          0.88079160       0.86771890       0.32528400
    28  C          0.61920840       0.63228110       0.32528400
    29  C          0.61920840       0.86771890       0.82528400
    30  C          0.88079160       0.63228110       0.82528400
    31  C          0.11920840       0.13228110       0.67471600
    32  C          0.38079160       0.36771890       0.67471600
    33  C          0.48890140       0.22236110       0.15981700
    34  C          0.01109860       0.27763890       0.15981700
    35  C         -0.01109860       0.77763890       0.34018300
    36  C          0.51109860       0.72236110       0.34018300
    37  C          0.51109860       0.77763890       0.84018300
    38  C         -0.01109860       0.72236110       0.84018300
    39  C          0.01109860       0.22236110       0.65981700
    40  C          0.48890140       0.27763890       0.65981700
    41  C          0.53570170       0.25449120       0.07786600
    42  C          0.96429830       0.24550880       0.07786600
    43  C          0.03570170       0.74550880       0.42213400
    44  C          0.46429830       0.75449120       0.42213400
    45  C          0.46429830       0.74550880       0.92213400
    46  C          0.03570170       0.75449120       0.92213400
    47  C          0.96429830       0.25449120       0.57786600
    48  C          0.53570170       0.24550880       0.57786600
    49  C          0.46809170       0.19738120       0.00824700
    50  C          0.03190830       0.30261880       0.00824700
    51  C          0.96809170       0.80261880       0.49175300
    52  C          0.53190830       0.69738120       0.49175300
    53  C          0.53190830       0.80261880      -0.00824700
    54  C          0.96809170       0.69738120      -0.00824700
    55  C          0.03190830       0.19738120       0.50824700
    56  C          0.46809170       0.30261880       0.50824700
    57  N          0.20324150       0.97872890       0.12112700
    58  N          0.29675850       0.52127110       0.12112700
    59  N          0.70324150       0.02127110       0.37887300
    60  N          0.79675850       0.47872890       0.37887300
    61  N          0.79675850       0.02127110       0.87887300
    62  N          0.70324150       0.47872890       0.87887300
    63  N          0.29675850       0.97872890       0.62112700
    64  N          0.20324150       0.52127110       0.62112700
    65  N          0.55038160       0.29071110       0.23274700
    66  N          0.94961840       0.20928890       0.23274700
    67  N          0.05038160       0.70928890       0.26725300
    68  N          0.44961840       0.79071110       0.26725300
    69  N          0.44961840       0.70928890       0.76725300
    70  N          0.05038160       0.79071110       0.76725300
    71  N          0.94961840       0.29071110       0.73274700
    72  N          0.55038160       0.20928890       0.73274700
    73  O          0.21029200       0.88451890       0.07901900
    74  O          0.28970800       0.61548110       0.07901900
    75  O          0.71029200       0.11548110       0.42098100
    76  O          0.78970800       0.38451890       0.42098100
    77  O          0.78970800       0.11548110       0.92098100
    78  O          0.71029200       0.38451890       0.92098100
    79  O          0.28970800       0.88451890       0.57901900
    80  O          0.21029200       0.61548110       0.57901900
    81  O          0.10993190      -0.00060120       0.17758100
    82  O          0.39006810       0.50060120       0.17758100
    83  O          0.60993190       0.00060120       0.32241900
    84  O          0.89006810       0.49939880       0.32241900
    85  O          0.89006810       0.00060120       0.82241900
    86  O          0.60993190       0.49939880       0.82241900
    87  O          0.39006810      -0.00060120       0.67758100
    88  O          0.10993190       0.50060120       0.67758100
    89  O          0.48618270       0.27684150       0.30169700
    90  O          0.01381730       0.22315850       0.30169700
    91  O         -0.01381730       0.72315850       0.19830300
    92  O          0.51381730       0.77684150       0.19830300
    93  O          0.51381730       0.72315850       0.69830300
    94  O         -0.01381730       0.77684150       0.69830300
    95  O          0.01381730       0.27684150       0.80169700
    96  O          0.48618270       0.22315850       0.80169700
    97  O          0.65855180       0.35959140       0.22033100
    98  O          0.84144820       0.14040860       0.22033100
    99  O          0.15855180       0.64040860       0.27966900
   100  O          0.34144820       0.85959140       0.27966900
   101  O          0.34144820       0.64040860       0.77966900
   102  O          0.15855180       0.85959140       0.77966900
   103  O          0.84144820       0.35959140       0.72033100
   104  O          0.65855180       0.14040860       0.72033100
   105  H          0.34220000       0.10710000       0.23610000
   106  H          0.15780000       0.39290000       0.23610000
   107  H          0.84220000       0.89290000       0.26390000
   108  H          0.65780000       0.60710000       0.26390000
   109  H          0.65780000       0.89290000       0.76390000
   110  H          0.84220000       0.60710000       0.76390000
   111  H          0.15780000       0.10710000       0.73610000
   112  H          0.34220000       0.39290000       0.73610000
   113  H          0.62420000       0.32110000       0.06810000
   114  H          0.87580000       0.17890000       0.06810000
   115  H          0.12420000       0.67890000       0.43190000
   116  H          0.37580000       0.82110000       0.43190000
   117  H          0.37580000       0.67890000       0.93190000
   118  H          0.12420000       0.82110000       0.93190000
   119  H          0.87580000       0.32110000       0.56810000
   120  H          0.62420000       0.17890000       0.56810000
   121  H          0.49020000       0.21910000       0.94590000
   122  H          0.00980000       0.28090000       0.94590000
   123  H         -0.00980000       0.78090000       0.55410000
   124  H          0.50980000       0.71910000       0.55410000
   125  H          0.50980000       0.78090000       0.05410000
   126  H         -0.00980000       0.71910000       0.05410000
   127  H          0.00980000       0.21910000       0.44590000
   128  H          0.49020000       0.28090000       0.44590000
