data_BENZAC22
_symmetry_space_group_name_H-M    'P1'
_symmetry_Int_Tables_number       1
loop_
_symmetry_equiv_pos_site_id
_symmetry_equiv_pos_as_xyz
1 x,y,z
_cell_length_a                   5.5023
_cell_length_b                   5.1373
_cell_length_c                   21.92715
_cell_angle_alpha                90.0
_cell_angle_beta                 97.04516
_cell_angle_gamma                90.0
loop_
_atom_site_label
_atom_site_type_symbol
_atom_site_fract_x
_atom_site_fract_y
_atom_site_fract_z
     1  C          0.42136000       0.47256000       0.60341150
     2  C          0.07864000       0.97256000       0.89658850
     3  C          0.57864000       0.52744000       0.39658850
     4  C          0.92136000       0.02744000       0.10341150
     5  C          0.60015000       0.50967000       0.65319180
     6  C          0.89985000       0.00967000       0.84680820
     7  C          0.39985000       0.49033000       0.34680820
     8  C          0.10015000      -0.00967000       0.15319180
     9  H          0.74038000       0.40691100       0.65745900
    10  H          0.75962000       0.90691100       0.84254100
    11  H          0.25962000       0.59308900       0.34254100
    12  H          0.24038000       0.09308900       0.15745900
    13  C          0.56937000       0.70028000       0.69658150
    14  C          0.93063000       0.20028000       0.80341850
    15  C          0.43063000       0.29972000       0.30341850
    16  C          0.06937000       0.79972000       0.19658150
    17  H          0.68895300       0.72502900       0.72988400
    18  H          0.81104700       0.22502900       0.77011600
    19  H          0.31104700       0.27497100       0.27011600
    20  H          0.18895300       0.77497100       0.22988400
    21  C          0.35978000       0.85377000       0.69020170
    22  C          0.14022000       0.35377000       0.80979830
    23  C          0.64022000       0.14623000       0.30979830
    24  C          0.85978000       0.64623000       0.19020170
    25  H          0.33907400      -0.01873900       0.71923200
    26  H          0.16092600       0.48126100       0.78076800
    27  H          0.66092600       0.01873900       0.28076800
    28  H          0.83907400       0.51873900       0.21923200
    29  C          0.18096000       0.81677000       0.64042000
    30  C          0.31904000       0.31677000       0.85958000
    31  C          0.81904000       0.18323000       0.35958000
    32  C          0.68096000       0.68323000       0.14042000
    33  H          0.04062000       0.91937600       0.63615300
    34  H          0.45938000       0.41937600       0.86384700
    35  H          0.95938000       0.08062400       0.36384700
    36  H          0.54062000       0.58062400       0.13615300
    37  C          0.21175000       0.62617000       0.59703150
    38  C          0.28825000       0.12617000       0.90296850
    39  C          0.78825000       0.37383000       0.40296850
    40  C          0.71175000       0.87383000       0.09703150
    41  H          0.09204300       0.60125800       0.56372700
    42  H          0.40795700       0.10125800       0.93627300
    43  H          0.90795700       0.39874200       0.43627300
    44  H          0.59204300       0.89874200       0.06372700
    45  C          0.46281000       0.26921000       0.55823000
    46  C          0.03719000       0.76921000       0.94177000
    47  C          0.53719000       0.73079000       0.44177000
    48  C          0.96281000       0.23079000       0.05823000
    49  O          0.65526000       0.13797000       0.56489170
    50  O          0.84474000       0.63797000       0.93510830
    51  O          0.34474000       0.86203000       0.43510830
    52  O          0.15526000       0.36203000       0.06489170
    53  O          0.29377000       0.23777000       0.51317190
    54  O          0.20623000       0.73777000       0.98682810
    55  O          0.70623000       0.76223000       0.48682810
    56  O          0.79377000       0.26223000       0.01317190
    57  H          0.31551700       0.09973700       0.49581300
    58  H          0.18448300       0.59973700       0.00418700
    59  H          0.68448300       0.90026300       0.50418700
    60  H          0.81551700       0.40026300      -0.00418700
