data_BENZAC23
_symmetry_space_group_name_H-M    'P1'
_symmetry_Int_Tables_number       1
loop_
_symmetry_equiv_pos_site_id
_symmetry_equiv_pos_as_xyz
1 x,y,z
_cell_length_a                   5.1568
_cell_length_b                   5.5218
_cell_length_c                   22.0493
_cell_angle_alpha                97.19
_cell_angle_beta                 90.0
_cell_angle_gamma                90.0
loop_
_atom_site_label
_atom_site_type_symbol
_atom_site_fract_x
_atom_site_fract_y
_atom_site_fract_z
     1  C          0.47458000       0.42227000       0.10352000
     2  C          0.52542000       0.57773000       0.89648000
     3  C          0.62539000       0.21338000       0.09792000
     4  C          0.37461000       0.78662000       0.90208000
     5  C          0.81531000       0.18178000       0.14082000
     6  C          0.18469000       0.81822000       0.85918000
     7  C          0.85219000       0.35799000       0.19022000
     8  C          0.14781000       0.64201000       0.80978000
     9  C          0.70261000       0.56719000       0.19672000
    10  C          0.29739000       0.43281000       0.80328000
    11  C          0.51319000       0.59928000       0.15342000
    12  C          0.48681000       0.40072000       0.84658000
    13  C          0.27058000       0.45907000       0.05832000
    14  C          0.72942000       0.54093000       0.94168000
    15  O          0.23786000       0.29245000       0.01391000
    16  O          0.76214000       0.70755000       0.98609000
    17  O          0.13676000       0.65435000       0.06451000
    18  O          0.86324000       0.34565000       0.93549000
    19  H          0.11670000       0.32920000       0.99270000
    20  H          0.88330000       0.67080000       0.00730000
    21  H         -0.02210000       0.33580000       0.21920000
    22  H          0.02210000       0.66420000       0.78080000
    23  H          0.41170000       0.73970000       0.15790000
    24  H          0.58830000       0.26030000       0.84210000
    25  H          0.59920000       0.09290000       0.06500000
    26  H          0.40080000       0.90710000       0.93500000
    27  H          0.72850000       0.68630000       0.22980000
    28  H          0.27150000       0.31370000       0.77020000
    29  H          0.91760000       0.04190000       0.13630000
    30  H          0.08240000       0.95810000       0.86370000
    31  O          0.63956000       0.84635000       0.43471000
    32  O          0.36044000       0.15365000       0.56529000
    33  O          0.73566000       0.20895000       0.48701000
    34  O          0.26434000       0.79105000       0.51299000
    35  C         -0.02693000       0.07927000       0.39632000
    36  C          0.02693000       0.92073000       0.60368000
    37  C          0.35519000       0.14079000       0.31052000
    38  C          0.64481000       0.85921000       0.68948000
    39  C          0.77398000       0.04287000       0.44242000
    40  C          0.22602000       0.95713000       0.55758000
    41  C          0.12659000       0.28648000       0.40272000
    42  C          0.87341000       0.71352000       0.59728000
    43  C          0.01318000       0.90007000       0.34682000
    44  C         -0.01318000       0.09993000       0.65318000
    45  C          0.20419000       0.93539000       0.30402000
    46  C          0.79581000       0.06461000       0.69598000
    47  C          0.31689000       0.31758000       0.35922000
    48  C          0.68311000       0.68242000       0.64078000
    49  H          0.52980000       0.85010000       0.46170000
    50  H          0.47020000       0.14990000       0.53830000
    51  H          0.48350000       0.16050000       0.28190000
    52  H          0.51650000       0.83950000       0.71810000
    53  H          0.10300000       0.40520000       0.43610000
    54  H          0.89700000       0.59480000       0.56390000
    55  H          0.91350000       0.75840000       0.34230000
    56  H          0.08650000       0.24160000       0.65770000
    57  H          0.22930000       0.81730000       0.27060000
    58  H          0.77070000       0.18270000       0.72940000
    59  H          0.41760000       0.45820000       0.36320000
    60  H          0.58240000       0.54180000       0.63680000
