data_BENZAC12
_symmetry_space_group_name_H-M    'P1'
_symmetry_Int_Tables_number       1
loop_
_symmetry_equiv_pos_site_id
_symmetry_equiv_pos_as_xyz
1 x,y,z
_cell_length_a                   5.4151
_cell_length_b                   5.0391
_cell_length_c                   21.6304
_cell_angle_alpha                90.0
_cell_angle_beta                 96.142
_cell_angle_gamma                90.0
loop_
_atom_site_label
_atom_site_type_symbol
_atom_site_fract_x
_atom_site_fract_y
_atom_site_fract_z
     1  C          0.21422000       0.64462000       0.09793600
     2  C          0.28578000       0.14462000       0.40206400
     3  C          0.78578000       0.35538000       0.90206400
     4  C          0.71422000       0.85538000       0.59793600
     5  H          0.09000000       0.61760000       0.06400000
     6  H          0.41000000       0.11760000       0.43600000
     7  H          0.91000000       0.38240000       0.93600000
     8  H          0.59000000       0.88240000       0.56400000
     9  C          0.18372000       0.83982000       0.14173600
    10  C          0.31628000       0.33982000       0.35826400
    11  C          0.81628000       0.16018000       0.85826400
    12  C          0.68372000       0.66018000       0.64173600
    13  H          0.03870000       0.94720000       0.13770000
    14  H          0.46130000       0.44720000       0.36230000
    15  H          0.96130000       0.05280000       0.86230000
    16  H          0.53870000       0.55280000       0.63770000
    17  C          0.36412000       0.87832000       0.19123600
    18  C          0.13588000       0.37832000       0.30876400
    19  C          0.63588000       0.12168000       0.80876400
    20  C          0.86412000       0.62168000       0.69123600
    21  H          0.34220000       0.01130000       0.22130000
    22  H          0.15780000       0.51130000       0.27870000
    23  H          0.65780000      -0.01130000       0.77870000
    24  H          0.84220000       0.48870000       0.72130000
    25  C          0.57652000       0.72332000       0.19702500
    26  C          0.92348000       0.22332000       0.30297500
    27  C          0.42348000       0.27668000       0.80297500
    28  C          0.07652000       0.77668000       0.69702500
    29  H          0.70040000       0.75070000       0.23100000
    30  H          0.79960000       0.25070000       0.26900000
    31  H          0.29960000       0.24930000       0.76900000
    32  H          0.20040000       0.74930000       0.73100000
    33  C          0.60892000       0.52862000       0.15350500
    34  C          0.89108000       0.02862000       0.34649500
    35  C          0.39108000       0.47138000       0.84649500
    36  C          0.10892000       0.97138000       0.65350500
    37  H          0.75470000       0.42240000       0.15750000
    38  H          0.74530000       0.92240000       0.34250000
    39  H          0.24530000       0.57760000       0.84250000
    40  H          0.25470000       0.07760000       0.65750000
    41  C          0.42732000       0.48882000       0.10383500
    42  C          0.07268000      -0.01118000       0.39616500
    43  C          0.57268000       0.51118000       0.89616500
    44  C          0.92732000       0.01118000       0.60383500
    45  C          0.46092000       0.27932000       0.05732500
    46  C          0.03908000       0.77932000       0.44267500
    47  C          0.53908000       0.72068000       0.94267500
    48  C          0.96092000       0.22068000       0.55732500
    49  O          0.29593160       0.24343180       0.01300400
    50  O          0.20406840       0.74343180       0.48699600
    51  O          0.70406840       0.75656820       0.98699600
    52  O          0.79593160       0.25656820       0.51300400
    53  O          0.66185150       0.14357170       0.06539400
    54  O          0.83814850       0.64357170       0.43460600
    55  O          0.33814850       0.85642830       0.93460600
    56  O          0.16185150       0.35642830       0.56539400
    57  H          0.68230000      -0.00930000       0.03127000
    58  H          0.81770000       0.49070000       0.46873000
    59  H          0.31770000       0.00930000       0.96873000
    60  H          0.18230000       0.50930000       0.53127000
