data_BERTOH03
_symmetry_space_group_name_H-M    'P1'
_symmetry_Int_Tables_number       1
loop_
_symmetry_equiv_pos_site_id
_symmetry_equiv_pos_as_xyz
1 x,y,z
_cell_length_a                   7.332018
_cell_length_b                   5.705714
_cell_length_c                   15.8594
_cell_angle_alpha                90.0
_cell_angle_beta                 113.3416
_cell_angle_gamma                90.0
loop_
_atom_site_label
_atom_site_type_symbol
_atom_site_fract_x
_atom_site_fract_y
_atom_site_fract_z
     1  N          0.78463000       0.76093000       0.77202120
     2  N          0.21537000       0.26093000       0.72797880
     3  N          0.21537000       0.23907000       0.22797880
     4  N          0.78463000       0.73907000       0.27202120
     5  N          0.72673000       0.09534000       0.41045120
     6  N          0.27327000       0.59534000       0.08954880
     7  N          0.27327000       0.90466000       0.58954880
     8  N          0.72673000       0.40466000       0.91045120
     9  C          0.73683000       0.36074000       0.54423130
    10  C          0.26317000       0.86074000       0.95576870
    11  C          0.26317000       0.63926000       0.45576870
    12  C          0.73683000       0.13926000       0.04423130
    13  C          0.65903000       0.28044000       0.60617130
    14  C          0.34097000       0.78044000       0.89382870
    15  C          0.34097000       0.71956000       0.39382870
    16  C          0.65903000       0.21956000       0.10617130
    17  H          0.59480200       0.13221900       0.59645700
    18  H          0.40519800       0.63221900       0.90354300
    19  H          0.40519800       0.86778100       0.40354300
    20  H          0.59480200       0.36778100       0.09645700
    21  C          0.77053000       0.63144000       0.69730130
    22  C          0.22947000       0.13144000       0.80269870
    23  C          0.22947000       0.36856000       0.30269870
    24  C          0.77053000       0.86856000       0.19730130
    25  C          0.82893000       0.58124000       0.55869130
    26  C          0.17107000       0.08124000       0.94130870
    27  C          0.17107000       0.41876000       0.44130870
    28  C          0.82893000       0.91876000       0.05869130
    29  H          0.87883000       0.64009600       0.51597700
    30  H          0.12117000       0.14009600       0.98402300
    31  H          0.12117000       0.35990400       0.48402300
    32  H          0.87883000       0.85990400       0.01597700
    33  C          0.84723000       0.71254000       0.63427130
    34  C          0.15277000       0.21254000       0.86572870
    35  C          0.15277000       0.28746000       0.36572870
    36  C          0.84723000       0.78746000       0.13427130
    37  H          0.91263000       0.85988300       0.64405300
    38  H          0.08737000       0.35988300       0.85594700
    39  H          0.08737000       0.14011700       0.35594700
    40  H          0.91263000       0.64011700       0.14405300
    41  C          0.67403000       0.41234000       0.68094130
    42  C          0.32597000       0.91234000       0.81905870
    43  C          0.32597000       0.58766000       0.31905870
    44  C          0.67403000       0.08766000       0.18094130
    45  H          0.61888600       0.35550200       0.72204600
    46  H          0.38111400       0.85550200       0.77795400
    47  H          0.38111400       0.64449800       0.27795400
    48  H          0.61888600       0.14449800       0.22204600
    49  C          0.72913000       0.21664000       0.46879140
    50  C          0.27087000       0.71664000       0.03120860
    51  C          0.27087000       0.78336000       0.53120860
    52  C          0.72913000       0.28336000       0.96879140
    53  H          0.87230000       0.90330000       0.79141800
    54  H          0.12770000       0.40330000       0.70858200
    55  H          0.12770000       0.09670000       0.20858200
    56  H          0.87230000       0.59670000       0.29141800
    57  H          0.76040000       0.68440000       0.82291200
    58  H          0.23960000       0.18440000       0.67708800
    59  H          0.23960000       0.31560000       0.17708800
    60  H          0.76040000       0.81560000       0.32291200
