data_BERTOH
_symmetry_space_group_name_H-M    'P1'
_symmetry_Int_Tables_number       1
loop_
_symmetry_equiv_pos_site_id
_symmetry_equiv_pos_as_xyz
1 x,y,z
_cell_length_a                   7.351
_cell_length_b                   5.561
_cell_length_c                   16.102
_cell_angle_alpha                90.0
_cell_angle_beta                 102.01
_cell_angle_gamma                90.0
loop_
_atom_site_label
_atom_site_type_symbol
_atom_site_fract_x
_atom_site_fract_y
_atom_site_fract_z
     1  C          0.27910000       0.63620000       0.71640000
     2  C          0.72090000       0.13620000       0.78360000
     3  C          0.72090000       0.36380000       0.28360000
     4  C          0.27910000       0.86380000       0.21640000
     5  C          0.35400000       0.72350000       0.64940000
     6  C          0.64600000       0.22350000       0.85060000
     7  C          0.64600000       0.27650000       0.35060000
     8  C          0.35400000       0.77650000       0.14940000
     9  C          0.32940000       0.60080000       0.57360000
    10  C          0.67060000       0.10080000       0.92640000
    11  C          0.67060000       0.39920000       0.42640000
    12  C          0.32940000       0.89920000       0.07360000
    13  C          0.22940000       0.38280000       0.56300000
    14  C          0.77060000       0.88280000       0.93700000
    15  C          0.77060000       0.61720000       0.43700000
    16  C          0.22940000       0.11720000       0.06300000
    17  C          0.15400000       0.29660000       0.62900000
    18  C          0.84600000       0.79660000       0.87100000
    19  C          0.84600000       0.70340000       0.37100000
    20  C          0.15400000       0.20340000       0.12900000
    21  C          0.17700000       0.41850000       0.70450000
    22  C          0.82300000       0.91850000       0.79550000
    23  C          0.82300000       0.58150000       0.29550000
    24  C          0.17700000       0.08150000       0.20450000
    25  C          0.21230000       0.24820000       0.48600000
    26  C          0.78770000       0.74820000       0.01400000
    27  C          0.78770000       0.75180000       0.51400000
    28  C          0.21230000       0.25180000       0.98600000
    29  N          0.30420000       0.75490000       0.79180000
    30  N          0.69580000       0.25490000       0.70820000
    31  N          0.69580000       0.24510000       0.20820000
    32  N          0.30420000       0.74510000       0.29180000
    33  N          0.20370000       0.13550000       0.42600000
    34  N          0.79630000       0.63550000       0.07400000
    35  N          0.79630000       0.86450000       0.57400000
    36  N          0.20370000       0.36450000       0.92600000
    37  H          0.44800000       0.85300000       0.65300000
    38  H          0.55200000       0.35300000       0.84700000
    39  H          0.55200000       0.14700000       0.34700000
    40  H          0.44800000       0.64700000       0.15300000
    41  H          0.38800000       0.66800000       0.52700000
    42  H          0.61200000       0.16800000       0.97300000
    43  H          0.61200000       0.33200000       0.47300000
    44  H          0.38800000       0.83200000       0.02700000
    45  H          0.07000000       0.14100000       0.62400000
    46  H          0.93000000       0.64100000       0.87600000
    47  H          0.93000000       0.85900000       0.37600000
    48  H          0.07000000       0.35900000       0.12400000
    49  H          0.13700000       0.36500000       0.74900000
    50  H          0.86300000       0.86500000       0.75100000
    51  H          0.86300000       0.63500000       0.25100000
    52  H          0.13700000       0.13500000       0.24900000
    53  H          0.37900000       0.88800000       0.80000000
    54  H          0.62100000       0.38800000       0.70000000
    55  H          0.62100000       0.11200000       0.20000000
    56  H          0.37900000       0.61200000       0.30000000
    57  H          0.26800000       0.70700000       0.83300000
    58  H          0.73200000       0.20700000       0.66700000
    59  H          0.73200000       0.29300000       0.16700000
    60  H          0.26800000       0.79300000       0.33300000
