data_BERTOH01
_symmetry_space_group_name_H-M    'P1'
_symmetry_Int_Tables_number       1
loop_
_symmetry_equiv_pos_site_id
_symmetry_equiv_pos_as_xyz
1 x,y,z
_cell_length_a                   5.7532
_cell_length_b                   7.5032
_cell_length_c                   14.2702
_cell_angle_alpha                90.0
_cell_angle_beta                 90.0
_cell_angle_gamma                90.0
loop_
_atom_site_label
_atom_site_type_symbol
_atom_site_fract_x
_atom_site_fract_y
_atom_site_fract_z
     1  N          0.74743000       0.37652000       0.59251000
     2  N          0.24743000       0.12348000       0.40749000
     3  N          0.25257000       0.87652000       0.90749000
     4  N          0.75257000       0.62348000       0.09251000
     5  C          0.60673000       0.44532000       0.52401000
     6  C          0.10673000       0.05468000       0.47599000
     7  C          0.39327000       0.94532000       0.97599000
     8  C          0.89327000       0.55468000       0.02401000
     9  C          0.38813000       0.51652000       0.54731000
    10  C          0.88813000      -0.01652000       0.45269000
    11  C          0.61187000       0.01652000       0.95269000
    12  C          0.11187000       0.48348000       0.04731000
    13  C          0.25083000       0.59222000       0.48011000
    14  C          0.75083000       0.90778000       0.51989000
    15  C          0.74917000       0.09222000       0.01989000
    16  C          0.24917000       0.40778000       0.98011000
    17  C          0.32464000       0.59852000       0.38661000
    18  C          0.82464000       0.90148000       0.61339000
    19  C          0.67536000       0.09852000       0.11339000
    20  C          0.17536000       0.40148000       0.88661000
    21  C          0.54054000       0.52682000       0.36281000
    22  C          0.04054000       0.97318000       0.63719000
    23  C          0.45946000       0.02682000       0.13719000
    24  C          0.95946000       0.47318000       0.86281000
    25  C          0.67894000       0.45052000       0.43001000
    26  C          0.17894000       0.04948000       0.56999000
    27  C          0.32106000       0.95052000       0.06999000
    28  C          0.82106000       0.54948000       0.93001000
    29  C          0.17884000       0.67463000       0.31601000
    30  C          0.67884000       0.82537000       0.68399000
    31  C          0.82116000       0.17463000       0.18399000
    32  C          0.32116000       0.32537000       0.81601000
    33  N          0.06064000       0.73472000       0.25941000
    34  N          0.56064000       0.76528000       0.74059000
    35  N          0.93936000       0.23472000       0.24059000
    36  N          0.43936000       0.26528000       0.75941000
    37  H          0.85904800       0.30042900       0.57461700
    38  H          0.35904800       0.19957100       0.42538300
    39  H          0.14095200       0.80042900       0.92538300
    40  H          0.64095200       0.69957100       0.07461700
    41  H          0.67344900       0.34473300       0.64551400
    42  H          0.17344900       0.15526700       0.35448600
    43  H          0.32655100       0.84473300       0.85448600
    44  H          0.82655100       0.65526700       0.14551400
    45  H          0.33553000       0.51192000       0.61031000
    46  H          0.83553000      -0.01192000       0.38969000
    47  H          0.66447000       0.01192000       0.88969000
    48  H          0.16447000       0.48808000       0.11031000
    49  H          0.10423000       0.64092000       0.49691000
    50  H          0.60423000       0.85908000       0.50309000
    51  H          0.89577000       0.14092000       0.00309000
    52  H          0.39577000       0.35908000      -0.00309000
    53  H          0.59204000       0.53082000       0.29951000
    54  H          0.09204000       0.96918000       0.70049000
    55  H          0.40796000       0.03082000       0.20049000
    56  H          0.90796000       0.46918000       0.79951000
    57  H          0.82464000       0.40072000       0.41291000
    58  H          0.32464000       0.09928000       0.58709000
    59  H          0.17536000       0.90072000       0.08709000
    60  H          0.67536000       0.59928000       0.91291000
