data_BIBZUJ03
_symmetry_space_group_name_H-M    'P1'
_symmetry_Int_Tables_number       1
loop_
_symmetry_equiv_pos_site_id
_symmetry_equiv_pos_as_xyz
1 x,y,z
_cell_length_a                   9.7932
_cell_length_b                   17.0223
_cell_length_c                   11.7255
_cell_angle_alpha                90.0
_cell_angle_beta                 125.75719
_cell_angle_gamma                90.0
loop_
_atom_site_label
_atom_site_type_symbol
_atom_site_fract_x
_atom_site_fract_y
_atom_site_fract_z
     1  S          0.55920500       0.61428200       0.56993600
     2  S          0.44079500       0.11428200       0.93006400
     3  S          0.44079500       0.38571800       0.43006400
     4  S          0.55920500       0.88571800       0.06993600
     5  N          0.62691150       0.47432700       0.68299880
     6  N          0.37308850       0.97432700       0.81700120
     7  N          0.37308850       0.52567300       0.31700120
     8  N          0.62691150       0.02567300       0.18299880
     9  N          0.04612150       0.66584800       0.27506120
    10  N          0.95387850       0.16584800       0.22493880
    11  N          0.95387850       0.33415200       0.72493880
    12  N          0.04612150       0.83415200       0.77506120
    13  C          0.76028160       0.57978800       0.85795860
    14  C          0.23971840       0.07978800       0.64204140
    15  C          0.23971840       0.42021200       0.14204140
    16  C          0.76028160       0.92021200       0.35795860
    17  C          0.80909170       0.65860900       0.88713850
    18  C          0.19090830       0.15860900       0.61286150
    19  C          0.19090830       0.34139100       0.11286150
    20  C          0.80909170       0.84139100       0.38713850
    21  H          0.77770000       0.69260000       0.81350000
    22  H          0.22230000       0.19260000       0.68650000
    23  H          0.22230000       0.30740000       0.18650000
    24  H          0.77770000       0.80740000       0.31350000
    25  C          0.81242180       0.53013900       0.97125850
    26  C          0.18757820       0.03013900       0.52874150
    27  C          0.18757820       0.46986100       0.02874150
    28  C          0.81242180       0.96986100       0.47125850
    29  H          0.78280000       0.47730000       0.95460000
    30  H          0.21720000       0.97730000       0.54540000
    31  H          0.21720000       0.52270000       0.04540000
    32  H          0.78280000       0.02270000       0.45460000
    33  C          0.95286170       0.63699900       0.13510140
    34  C          0.04713830       0.13699900       0.36489860
    35  C          0.04713830       0.36300100       0.86489860
    36  C          0.95286170       0.86300100       0.63510140
    37  C          0.65614160       0.54944800       0.71377860
    38  C          0.34385840       0.04944800       0.78622140
    39  C          0.34385840       0.45055200       0.28622140
    40  C          0.65614160       0.95055200       0.21377860
    41  C          0.18137170       0.71909800       0.32348140
    42  C          0.81862830       0.21909800       0.17651860
    43  C          0.81862830       0.28090200       0.67651860
    44  C          0.18137170       0.78090200       0.82348140
    45  C          0.00038180       0.64060900       0.36461150
    46  C         -0.00038180       0.14060900       0.13538850
    47  C         -0.00038180       0.35939100       0.63538850
    48  C          0.00038180       0.85939100       0.86461150
    49  C          0.27988180       0.71364900       0.27355150
    50  C          0.72011820       0.21364900       0.22644850
    51  C          0.72011820       0.28635100       0.72644850
    52  C          0.27988180       0.78635100       0.77355150
    53  H          0.25700000       0.67490000       0.20870000
    54  H          0.74300000       0.17490000       0.29130000
    55  H          0.74300000       0.32510000       0.79130000
    56  H          0.25700000       0.82510000       0.70870000
    57  C          0.12122000       0.62131900       0.50414160
    58  C          0.87878000       0.12131900      -0.00414160
    59  C          0.87878000       0.37868100       0.49585840
    60  C          0.12122000       0.87868100       0.00414160
    61  H          0.23480000       0.62510000       0.54120000
    62  H          0.76520000       0.12510000       0.95880000
    63  H          0.76520000       0.37490000       0.45880000
    64  H          0.23480000       0.87490000       0.04120000
    65  C          0.90293180       0.68686900       0.02309150
    66  C          0.09706820       0.18686900       0.47690850
    67  C          0.09706820       0.31313100       0.97690850
    68  C          0.90293180       0.81313100       0.52309150
    69  H          0.93300000       0.73960000       0.03990000
    70  H          0.06700000       0.23960000       0.46010000
    71  H          0.06700000       0.26040000       0.96010000
    72  H          0.93300000       0.76040000       0.53990000
    73  C          0.41175180       0.76553100       0.31979160
    74  C          0.58824820       0.26553100       0.18020840
    75  C          0.58824820       0.23446900       0.68020840
    76  C          0.41175180       0.73446900       0.81979160
    77  H          0.47490000       0.76210000       0.28400000
    78  H          0.52510000       0.26210000       0.21600000
    79  H          0.52510000       0.23790000       0.71600000
    80  H          0.47490000       0.73790000       0.78400000
    81  C          0.90710190       0.55795900       0.10763150
    82  C          0.09289810       0.05795900       0.39236850
    83  C          0.09289810       0.44204100       0.89236850
    84  C          0.90710190       0.94204100       0.60763150
    85  H          0.94050000       0.52380000       0.18160000
    86  H          0.05950000       0.02380000       0.31840000
    87  H          0.05950000       0.47620000       0.81840000
    88  H          0.94050000       0.97620000       0.68160000
    89  C          0.44992000       0.82216110       0.41855170
    90  C          0.55008000       0.32216110       0.08144830
    91  C          0.55008000       0.17783890       0.58144830
    92  C          0.44992000       0.67783890       0.91855170
    93  H          0.53880000       0.85670000       0.44990000
    94  H          0.46120000       0.35670000       0.05010000
    95  H          0.46120000       0.14330000       0.55010000
    96  H          0.53880000       0.64330000       0.94990000
    97  C          0.83116190       0.63411100       0.31123160
    98  C          0.16883810       0.13411100       0.18876840
    99  C          0.16883810       0.36588900       0.68876840
   100  C          0.83116190       0.86588900       0.81123160
   101  H          0.74870000       0.64750000       0.21820000
   102  H          0.25130000       0.14750000       0.28180000
   103  H          0.25130000       0.35250000       0.78180000
   104  H          0.74870000       0.85250000       0.71820000
   105  C          0.78512000       0.60777100       0.39602000
   106  C          0.21488000       0.10777100       0.10398000
   107  C          0.21488000       0.39222900       0.60398000
   108  C          0.78512000       0.89222900       0.89602000
   109  H          0.67180000       0.60290000       0.35920000
   110  H          0.32820000       0.10290000       0.14080000
   111  H          0.32820000       0.39710000       0.64080000
   112  H          0.67180000       0.89710000       0.85920000
   113  C          0.07352000       0.59643100       0.58851170
   114  C          0.92648000       0.09643100       0.91148830
   115  C          0.92648000       0.40356900       0.41148830
   116  C          0.07352000       0.90356900       0.08851170
   117  H          0.15550000       0.58480000       0.68250000
   118  H          0.84450000       0.08480000       0.81750000
   119  H          0.84450000       0.41520000       0.31750000
   120  H          0.15550000       0.91520000       0.18250000
   121  C          0.21930190       0.77684100       0.42195160
   122  C          0.78069810       0.27684100       0.07804840
   123  C          0.78069810       0.22315900       0.57804840
   124  C          0.21930190       0.72315900       0.92195160
   125  H          0.15390000       0.78190000       0.45540000
   126  H          0.84610000       0.28190000       0.04460000
   127  H          0.84610000       0.21810000       0.54460000
   128  H          0.15390000       0.71810000       0.95540000
   129  C          0.90652000       0.58873100       0.53498190
   130  C          0.09348000       0.08873100       0.96501810
   131  C          0.09348000       0.41126900       0.46501810
   132  C          0.90652000       0.91126900       0.03498190
   133  H          0.87540000       0.57090000       0.59170000
   134  H          0.12460000       0.07090000       0.90830000
   135  H          0.12460000       0.42910000       0.40830000
   136  H          0.87540000       0.92910000       0.09170000
   137  C          0.35502000       0.82703100       0.47032170
   138  C          0.64498000       0.32703100       0.02967830
   139  C          0.64498000       0.17296900       0.52967830
   140  C          0.35502000       0.67296900       0.97032170
   141  H          0.38200000       0.86430000       0.53850000
   142  H          0.61800000       0.36430000       0.96150000
   143  H          0.61800000       0.13570000       0.46150000
   144  H          0.38200000       0.63570000       0.03850000
   145  C          0.47459160       0.53334800       0.46012860
   146  C          0.52540840       0.03334800       0.03987140
   147  C          0.52540840       0.46665200       0.53987140
   148  C          0.47459160       0.96665200       0.96012860
