data_BIBZUJ
_symmetry_space_group_name_H-M    'P1'
_symmetry_Int_Tables_number       1
loop_
_symmetry_equiv_pos_site_id
_symmetry_equiv_pos_as_xyz
1 x,y,z
_cell_length_a                   9.656919
_cell_length_b                   10.1402
_cell_length_c                   18.8985
_cell_angle_alpha                90.0
_cell_angle_beta                 118.422
_cell_angle_gamma                90.0
loop_
_atom_site_label
_atom_site_type_symbol
_atom_site_fract_x
_atom_site_fract_y
_atom_site_fract_z
     1  S          0.50672700       0.10486400       0.90912700
     2  S          0.49327300       0.60486400       0.59087300
     3  S          0.49327300       0.89513600       0.09087300
     4  S          0.50672700       0.39513600       0.40912700
     5  N          0.40307180       0.14190840       0.01210900
     6  N          0.59692820       0.64190840       0.48789100
     7  N          0.59692820       0.85809160       0.98789100
     8  N          0.40307180       0.35809160       0.51210900
     9  N          0.17018190       0.70537830       0.82908900
    10  N          0.82981810       0.20537830       0.67091100
    11  N          0.82981810       0.29462170       0.17091100
    12  N          0.17018190       0.79462170       0.32908900
    13  C          0.41332000       0.19878810       0.95243890
    14  C          0.58668000       0.69878810       0.54756110
    15  C          0.58668000       0.80121190       0.04756110
    16  C          0.41332000       0.30121190       0.45243890
    17  C          0.20422000       0.76490810       0.77031880
    18  C          0.79578000       0.26490810       0.72968120
    19  C          0.79578000       0.23509190       0.22968120
    20  C          0.20422000       0.73509190       0.27031880
    21  C          0.25612000       0.54158000       0.93637890
    22  C          0.74388000       0.04158000       0.56362110
    23  C          0.74388000       0.45842000       0.06362110
    24  C          0.25612000       0.95842000       0.43637890
    25  H          0.23140000       0.59900000       0.96710000
    26  H          0.76860000       0.09900000       0.53290000
    27  H          0.76860000       0.40100000       0.03290000
    28  H          0.23140000       0.90100000       0.46710000
    29  C          0.31472000       0.41888000       0.96593880
    30  C          0.68528000       0.91888000       0.53406120
    31  C          0.68528000       0.58112000       0.03406120
    32  C          0.31472000       0.08112000       0.46593880
    33  H          0.32890000       0.39450000       0.01640000
    34  H          0.67110000       0.89450000       0.48360000
    35  H          0.67110000       0.60550000       0.98360000
    36  H          0.32890000       0.10550000       0.51640000
    37  C          0.35352000       0.33014810       0.92183890
    38  C          0.64648000       0.83014810       0.57816110
    39  C          0.64648000       0.66985190       0.07816110
    40  C          0.35352000       0.16985190       0.42183890
    41  C          0.53042000       0.98028000       0.97568890
    42  C          0.46958000       0.48028000       0.52431110
    43  C          0.46958000       0.01972000       0.02431110
    44  C          0.53042000       0.51972000       0.47568890
    45  C          0.33222000       0.37168000       0.84698890
    46  C          0.66778000       0.87168000       0.65301110
    47  C          0.66778000       0.62832000       0.15301110
    48  C          0.33222000       0.12832000       0.34698890
    49  H          0.35850000       0.31480000       0.81670000
    50  H          0.64150000       0.81480000       0.68330000
    51  H          0.64150000       0.68520000       0.18330000
    52  H          0.35850000       0.18520000       0.31670000
    53  C          0.23282000       0.58149810       0.86050890
    54  C          0.76718000       0.08149810       0.63949110
    55  C          0.76718000       0.41850190       0.13949110
    56  C          0.23282000       0.91850190       0.36050890
    57  C          0.06632000       0.77128000       0.85148880
    58  C          0.93368000       0.27128000       0.64851120
    59  C          0.93368000       0.22872000       0.14851120
    60  C          0.06632000       0.72872000       0.35148880
    61  C          0.27362000       0.49408000       0.81681890
    62  C          0.72638000      -0.00592000       0.68318110
    63  C          0.72638000       0.50592000       0.18318110
    64  C          0.27362000       0.00592000       0.31681890
    65  H          0.26090000       0.51880000       0.76670000
    66  H          0.73910000       0.01880000       0.73330000
    67  H          0.73910000       0.48120000       0.23330000
    68  H          0.26090000       0.98120000       0.26670000
    69  C          0.09023000       0.90138000       0.87404870
    70  C          0.90977000       0.40138000       0.62595130
    71  C          0.90977000       0.09862000       0.12595130
    72  C          0.09023000       0.59862000       0.37404870
    73  H          0.17200000       0.94800000       0.87280000
    74  H          0.82800000       0.44800000       0.62720000
    75  H          0.82800000       0.05200000       0.12720000
    76  H          0.17200000       0.55200000       0.37280000
    77  C          0.08653000       0.79508000       0.69533860
    78  C          0.91347000       0.29508000       0.80466140
    79  C          0.91347000       0.20492000       0.30466140
    80  C          0.08653000       0.70492000       0.19533860
    81  H         -0.01810000       0.77930000       0.68190000
    82  H          0.01810000       0.27930000       0.81810000
    83  H          0.01810000       0.22070000       0.31810000
    84  H         -0.01810000       0.72070000       0.18190000
    85  C          0.39383000       0.84727000       0.73439840
    86  C          0.60617000       0.34727000       0.76560160
    87  C          0.60617000       0.15273000       0.26560160
    88  C          0.39383000       0.65273000       0.23439840
    89  H          0.49800000       0.86600000       0.74850000
    90  H          0.50200000       0.36600000       0.75150000
    91  H          0.50200000       0.13400000       0.25150000
    92  H          0.49800000       0.63400000       0.24850000
    93  C          0.94137000       0.70337000       0.85112850
    94  C          0.05863000       0.20337000       0.64887150
    95  C          0.05863000       0.29663000       0.14887150
    96  C          0.94137000       0.79663000       0.35112850
    97  H          0.92210000       0.61600000       0.83420000
    98  H          0.07790000       0.11600000       0.66580000
    99  H          0.07790000       0.38400000       0.16580000
   100  H          0.92210000       0.88400000       0.33420000
   101  C          0.35792000       0.79158000       0.78987860
   102  C          0.64208000       0.29158000       0.71012140
   103  C          0.64208000       0.20842000       0.21012140
   104  C          0.35792000       0.70842000       0.28987860
   105  H          0.43830000       0.77170000       0.84110000
   106  H          0.56170000       0.27170000       0.65890000
   107  H          0.56170000       0.22830000       0.15890000
   108  H          0.43830000       0.72830000       0.34110000
   109  C          0.84577000       0.76696000       0.87623810
   110  C          0.15423000       0.26696000       0.62376190
   111  C          0.15423000       0.23304000       0.12376190
   112  C          0.84577000       0.73304000       0.37623810
   113  H          0.76300000       0.72160000       0.87710000
   114  H          0.23700000       0.22160000       0.62290000
   115  H          0.23700000       0.27840000       0.12290000
   116  H          0.76300000       0.77840000       0.37710000
   117  C          0.27814000       0.87527000       0.65925830
   118  C          0.72186000       0.37527000       0.84074170
   119  C          0.72186000       0.12473000       0.34074170
   120  C          0.27814000       0.62473000       0.15925830
   121  H          0.30310000       0.91170000       0.62160000
   122  H          0.69690000       0.41170000       0.87840000
   123  H          0.69690000       0.08830000       0.37840000
   124  H          0.30310000       0.58830000       0.12160000
   125  C         -0.00734000       0.96327000       0.89856850
   126  C          0.00734000       0.46327000       0.60143150
   127  C          0.00734000       0.03673000       0.10143150
   128  C         -0.00734000       0.53673000       0.39856850
   129  H          0.00960000       0.05120000       0.91430000
   130  H         -0.00960000       0.55120000       0.58570000
   131  H         -0.00960000       0.94880000       0.08570000
   132  H          0.00960000       0.44880000       0.41430000
   133  C          0.12463000       0.85007000       0.63883850
   134  C          0.87537000       0.35007000       0.86116150
   135  C          0.87537000       0.14993000       0.36116150
   136  C          0.12463000       0.64993000       0.13883850
   137  H          0.04520000       0.86950000       0.58730000
   138  H          0.95480000       0.36950000       0.91270000
   139  H          0.95480000       0.13050000       0.41270000
   140  H          0.04520000       0.63050000       0.08730000
   141  C          0.87156000       0.89556000       0.89969830
   142  C          0.12844000       0.39556000       0.60030170
   143  C          0.12844000       0.10444000       0.10030170
   144  C          0.87156000       0.60444000       0.39969830
   145  H          0.80660000       0.93730000       0.91650000
   146  H          0.19340000       0.43730000       0.58350000
   147  H          0.19340000       0.06270000       0.08350000
   148  H          0.80660000       0.56270000       0.41650000
