data_BIBZUJ02
_symmetry_space_group_name_H-M    'P1'
_symmetry_Int_Tables_number       1
loop_
_symmetry_equiv_pos_site_id
_symmetry_equiv_pos_as_xyz
1 x,y,z
_cell_length_a                   6.6936
_cell_length_b                   9.6657
_cell_length_c                   12.87012
_cell_angle_alpha                96.343
_cell_angle_beta                 93.873
_cell_angle_gamma                96.893
loop_
_atom_site_label
_atom_site_type_symbol
_atom_site_fract_x
_atom_site_fract_y
_atom_site_fract_z
     1  C          0.13281900       0.46571200       0.26761000
     2  C          0.86718100       0.53428800       0.73239000
     3  C          0.03520000       0.58371600       0.28011200
     4  C          0.96480000       0.41628400       0.71988800
     5  H          0.91060000       0.58130000       0.30830000
     6  H          0.08940000       0.41870000       0.69170000
     7  C          0.13330000       0.70911500       0.24821400
     8  C          0.86670000       0.29088500       0.75178600
     9  H          0.06860000       0.78940000       0.25430000
    10  H          0.93140000       0.21060000       0.74570000
    11  C          0.32030000       0.71611600       0.20841200
    12  C          0.67970000       0.28388400       0.79158800
    13  H          0.38080000       0.79990000       0.18890000
    14  H          0.61920000       0.20010000       0.81110000
    15  C          0.41320000       0.59931400       0.19831000
    16  C          0.58680000       0.40068600       0.80169000
    17  H          0.53890000       0.60230000       0.17170000
    18  H          0.46110000       0.39770000       0.82830000
    19  C          0.32120000       0.47611300       0.22751000
    20  C          0.67880000       0.52388700       0.77249000
    21  H          0.38740000       0.39670000       0.22010000
    22  H          0.61260000       0.60330000       0.77990000
    23  C          0.13531800       0.27641400       0.37971000
    24  C          0.86468200       0.72358600       0.62029000
    25  C          0.25320000       0.36151500       0.45771000
    26  C          0.74680000       0.63848500       0.54229000
    27  H          0.26680000       0.45830000       0.45700000
    28  H          0.73320000       0.54170000       0.54300000
    29  C          0.35330000       0.30591900       0.53771100
    30  C          0.64670000       0.69408100       0.46228900
    31  H          0.43040000       0.36430000       0.59180000
    32  H          0.56960000       0.63570000       0.40820000
    33  C          0.33630000       0.16320000       0.53571200
    34  C          0.66370000       0.83680000       0.46428800
    35  H          0.40310000       0.12500000       0.58910000
    36  H          0.59690000       0.87500000       0.41090000
    37  C          0.22420000       0.07621600       0.45791100
    38  C          0.77580000       0.92378400       0.54208900
    39  H          0.21430000       0.97940000       0.45790000
    40  H          0.78570000       0.02060000       0.54210000
    41  C          0.12321900       0.13331400       0.37801000
    42  C          0.87678100       0.86668600       0.62199000
    43  H          0.04780000       0.07450000       0.32350000
    44  H          0.95220000       0.92550000       0.67650000
    45  C          0.85661800       0.27271300       0.24101000
    46  C          0.14338200       0.72728700       0.75899000
    47  C          0.71351700       0.19311300       0.29121000
    48  C          0.28648300       0.80688700       0.70879000
    49  H          0.73600000       0.18220000       0.36180000
    50  H          0.26400000       0.81780000       0.63820000
    51  C          0.53861800       0.13091200       0.23419000
    52  C          0.46138200       0.86908800       0.76581000
    53  H          0.44740000       0.07200000       0.26580000
    54  H          0.55260000       0.92800000       0.73420000
    55  C          0.49261700       0.15311100       0.13029000
    56  C          0.50738300       0.84688900       0.86971000
    57  C          0.63191800       0.23491200       0.08309000
    58  C          0.36808200       0.76508800       0.91691000
    59  H          0.60320000       0.25150000       0.01410000
    60  H          0.39680000       0.74850000       0.98590000
    61  C          0.82041900       0.29521200       0.13739000
    62  C          0.17958100       0.70478800       0.86261000
    63  H          0.91630000       0.34820000       0.10400000
    64  H          0.08370000       0.65180000       0.89600000
    65  C          0.29991700       0.09361100       0.07478000
    66  C          0.70008300       0.90638900       0.92522000
    67  C         -0.00261700       0.03071100       0.95491000
    68  C          0.00261700       0.96928900       0.04509000
    69  N          0.04021500       0.33731100       0.29558000
    70  N          0.95978500       0.66268900       0.70442000
    71  N          0.16751500       0.00361000       0.11358000
    72  N          0.83248500      -0.00361000       0.88642000
    73  S          0.21795000       0.14203000       0.95327000
    74  S          0.78205000       0.85797000       0.04673000
