data_BICCIZ05
_symmetry_space_group_name_H-M    'P1'
_symmetry_Int_Tables_number       1
loop_
_symmetry_equiv_pos_site_id
_symmetry_equiv_pos_as_xyz
1 x,y,z
_cell_length_a                   10.5745
_cell_length_b                   10.4136
_cell_length_c                   14.7947
_cell_angle_alpha                90.0
_cell_angle_beta                 95.00315
_cell_angle_gamma                90.0
loop_
_atom_site_label
_atom_site_type_symbol
_atom_site_fract_x
_atom_site_fract_y
_atom_site_fract_z
     1  O          0.14998800       0.36151800       0.61233500
     2  O          0.85001200       0.86151800       0.88766500
     3  O          0.85001200       0.63848200       0.38766500
     4  O          0.14998800       0.13848200       0.11233500
     5  O          0.34467700       0.30250700       0.60137500
     6  O          0.65532300       0.80250700       0.89862500
     7  O          0.65532300       0.69749300       0.39862500
     8  O          0.34467700       0.19749300       0.10137500
     9  O          0.17584800       0.07215700       0.56831500
    10  O          0.82415200       0.57215700       0.93168500
    11  O          0.82415200       0.92784300       0.43168500
    12  O          0.17584800       0.42784300       0.06831500
    13  O          0.14069700       0.86839300       0.52577500
    14  O          0.85930300       0.36839300       0.97422500
    15  O          0.85930300       0.13160700       0.47422500
    16  O          0.14069700       0.63160700       0.02577500
    17  O          0.54333600       0.28226700       0.46432500
    18  O          0.45666400       0.78226700       0.03567500
    19  O          0.45666400       0.71773300       0.53567500
    20  O          0.54333600       0.21773300       0.96432500
    21  O          0.63304600       0.23261700       0.33664500
    22  O          0.36695400       0.73261700       0.16335500
    23  O          0.36695400       0.76738300       0.66335500
    24  O          0.63304600       0.26738300       0.83664500
    25  N          0.35792800       0.93249200       0.30506500
    26  N          0.64207200       0.43249200       0.19493500
    27  N          0.64207200       0.06750800       0.69493500
    28  N          0.35792800       0.56750800       0.80506500
    29  H          0.35911300       0.87688900       0.26267000
    30  H          0.64088700       0.37688900       0.23733000
    31  H          0.64088700       0.12311100       0.73733000
    32  H          0.35911300       0.62311100       0.76267000
    33  N          0.23780800       0.32923800       0.56776500
    34  N          0.76219200       0.82923800       0.93223500
    35  N          0.76219200       0.67076200       0.43223500
    36  N          0.23780800       0.17076200       0.06776500
    37  C          0.14815900       0.35081900       0.28394600
    38  C          0.85184100       0.85081900       0.21605400
    39  C          0.85184100       0.64918100       0.71605400
    40  C          0.14815900       0.14918100       0.78394600
    41  H          0.12673400       0.35686600       0.22037500
    42  H          0.87326600       0.85686600       0.27962500
    43  H          0.87326600       0.64313400       0.77962500
    44  H          0.12673400       0.14313400       0.72037500
    45  C          0.10227900       0.44144900       0.34204700
    46  C          0.89772100       0.94144900       0.15795300
    47  C          0.89772100       0.55855100       0.65795300
    48  C          0.10227900       0.05855100       0.84204700
    49  H          0.05056700       0.51039200       0.31851500
    50  H          0.94943300       0.01039200       0.18148500
    51  H          0.94943300       0.48960800       0.68148500
    52  H          0.05056700      -0.01039200       0.81851500
    53  C          0.13303900       0.42974900       0.43468700
    54  C          0.86696100       0.92974900       0.06531300
    55  C          0.86696100       0.57025100       0.56531300
    56  C          0.13303900       0.07025100       0.93468700
    57  H          0.10067500       0.48959100       0.47529600
    58  H          0.89932500      -0.01040900       0.02470400
    59  H          0.89932500       0.51040900       0.52470400
    60  H          0.10067500       0.01040900       0.97529600
    61  C          0.21164900       0.32983900       0.46810600
    62  C          0.78835100       0.82983900       0.03189400
    63  C          0.78835100       0.67016100       0.53189400
    64  C          0.21164900       0.17016100       0.96810600
    65  C          0.26172800       0.23816800       0.41194600
    66  C          0.73827200       0.73816800       0.08805400
    67  C          0.73827200       0.76183200       0.58805400
    68  C          0.26172800       0.26183200       0.91194600
    69  C          0.22531800       0.25144900       0.31901600
    70  C          0.77468200       0.75144900       0.18098400
    71  C          0.77468200       0.74855100       0.68098400
    72  C          0.22531800       0.24855100       0.81901600
    73  H          0.25463100       0.18991200       0.27827000
    74  H          0.74536900       0.68991200       0.22173000
    75  H          0.74536900       0.81008800       0.72173000
    76  H          0.25463100       0.31008800       0.77827000
    77  C          0.34613800       0.12273800       0.44190600
    78  C          0.65386200       0.62273800       0.05809400
    79  C          0.65386200       0.87726200       0.55809400
    80  C          0.34613800       0.37726200       0.94190600
    81  H          0.38233700       0.13668800       0.50586900
    82  H          0.61766300       0.63668800      -0.00586900
    83  H          0.61766300       0.86331200       0.49413100
    84  H          0.38233700       0.36331200       0.00586900
    85  C          0.26703800       0.00010800       0.43771600
    86  C          0.73296200       0.50010800       0.06228400
    87  C          0.73296200      -0.00010800       0.56228400
    88  C          0.26703800       0.49989200       0.93771600
    89  C          0.26909800       0.91639100       0.36751600
    90  C          0.73090200       0.41639100       0.13248400
    91  C          0.73090200       0.08360900       0.63248400
    92  C          0.26909800       0.58360900       0.86751600
    93  C          0.45489800       0.11129900       0.38107600
    94  C          0.54510200       0.61129900       0.11892400
    95  C          0.54510200       0.88870100       0.61892400
    96  C          0.45489800       0.38870100       0.88107600
    97  C          0.45544800       0.02019900       0.31547600
    98  C          0.54455200       0.52019900       0.18452400
    99  C          0.54455200       0.97980100       0.68452400
   100  C          0.45544800       0.47980100       0.81547600
   101  C          0.55308800       0.21039900       0.38958600
   102  C          0.44691200       0.71039900       0.11041400
   103  C          0.44691200       0.78960100       0.61041400
   104  C          0.55308800       0.28960100       0.88958600
   105  C          0.19001800       0.98563100       0.51517600
   106  C          0.80998200       0.48563100       0.98482400
   107  C          0.80998200       0.01436900       0.48482400
   108  C          0.19001800       0.51436900       0.01517600
   109  C          0.07395100       0.85382900       0.60619700
   110  C          0.92604900       0.35382900       0.89380300
   111  C          0.92604900       0.14617100       0.39380300
   112  C          0.07395100       0.64617100       0.10619700
   113  H          0.13259400       0.86937900       0.66009800
   114  H          0.86740600       0.36937900       0.83990200
   115  H          0.86740600       0.13062100       0.33990200
   116  H          0.13259400       0.63062100       0.16009800
   117  H          0.03994300       0.76646000       0.60847900
   118  H          0.96005700       0.26646000       0.89152100
   119  H          0.96005700       0.23354000       0.39152100
   120  H          0.03994300       0.73354000       0.10847900
   121  H          0.00400900       0.91576000       0.60460700
   122  H         -0.00400900       0.41576000       0.89539300
   123  H         -0.00400900       0.08424000       0.39539300
   124  H          0.00400900       0.58424000       0.10460700
   125  C          0.55502900       0.00308110       0.24994700
   126  C          0.44497100       0.50308110       0.25005300
   127  C          0.44497100      -0.00308110       0.75005300
   128  C          0.55502900       0.49691890       0.74994700
   129  H          0.63947600       0.00910400       0.28266800
   130  H          0.36052400       0.50910400       0.21733200
   131  H          0.36052400      -0.00910400       0.71733200
   132  H          0.63947600       0.49089600       0.78266800
   133  H          0.54557700       0.07031200       0.20349600
   134  H          0.45442300       0.57031200       0.29650400
   135  H          0.45442300       0.92968800       0.79650400
   136  H          0.54557700       0.42968800       0.70349600
   137  H          0.54494000       0.91865500       0.22093900
   138  H          0.45506000       0.41865500       0.27906100
   139  H          0.45506000       0.08134500       0.77906100
   140  H          0.54494000       0.58134500       0.72093900
   141  C          0.63379100       0.38490100       0.47787800
   142  C          0.36620900       0.88490100       0.02212200
   143  C          0.36620900       0.61509900       0.52212200
   144  C          0.63379100       0.11509900       0.97787800
   145  H          0.62263600       0.42806000       0.53549900
   146  H          0.37736400       0.92806000       0.96450100
   147  H          0.37736400       0.57194000       0.46450100
   148  H          0.62263600       0.07194000       0.03549900
   149  H          0.62045500       0.44671800       0.42800000
   150  H          0.37954500       0.94671800       0.07200000
   151  H          0.37954500       0.55328200       0.57200000
   152  H          0.62045500       0.05328200       0.92800000
   153  H          0.71999900       0.34993600       0.47934300
   154  H          0.28000100       0.84993600       0.02065700
   155  H          0.28000100       0.65006400       0.52065700
   156  H          0.71999900       0.15006400       0.97934300
   157  C          0.18270100       0.80411900       0.34463700
   158  C          0.81729900       0.30411900       0.15536300
   159  C          0.81729900       0.19588100       0.65536300
   160  C          0.18270100       0.69588100       0.84463700
   161  H          0.22963900       0.72392500       0.35673900
   162  H          0.77036100       0.22392500       0.14326100
   163  H          0.77036100       0.27607500       0.64326100
   164  H          0.22963900       0.77607500       0.85673900
   165  H          0.15158400       0.80788700       0.28031800
   166  H          0.84841600       0.30788700       0.21968200
   167  H          0.84841600       0.19211300       0.71968200
   168  H          0.15158400       0.69211300       0.78031800
   169  H          0.11058100       0.80740500       0.38192200
   170  H          0.88941900       0.30740500       0.11807800
   171  H          0.88941900       0.19259500       0.61807800
   172  H          0.11058100       0.69259500       0.88192200
