data_BICCIZ12
_symmetry_space_group_name_H-M    'P1'
_symmetry_Int_Tables_number       1
loop_
_symmetry_equiv_pos_site_id
_symmetry_equiv_pos_as_xyz
1 x,y,z
_cell_length_a                   11.9054
_cell_length_b                   10.9083
_cell_length_c                   12.7794
_cell_angle_alpha                90.0
_cell_angle_beta                 106.9809
_cell_angle_gamma                90.0
loop_
_atom_site_label
_atom_site_type_symbol
_atom_site_fract_x
_atom_site_fract_y
_atom_site_fract_z
     1  O          0.47433800       0.80080800       0.31243700
     2  O          0.02566200       0.30080800       0.18756300
     3  O          0.52566200       0.19919200       0.68756300
     4  O          0.97433800       0.69919200       0.81243700
     5  O          0.51102700       0.61843700       0.24941600
     6  O         -0.01102700       0.11843700       0.25058400
     7  O          0.48897300       0.38156300       0.75058400
     8  O          0.01102700       0.88156300       0.74941600
     9  O          0.80503700       0.31050700       0.66145600
    10  O          0.69496300       0.81050700       0.83854400
    11  O          0.19496300       0.68949300       0.33854400
    12  O          0.30503700       0.18949300       0.16145600
    13  O          0.72431700       0.29583700       0.48019600
    14  O          0.77568300       0.79583700       0.01980400
    15  O          0.27568300       0.70416300       0.51980400
    16  O          0.22431700       0.20416300       0.98019600
    17  O          0.56591700       0.33984800       0.26092700
    18  O          0.93408300       0.83984800       0.23907300
    19  O          0.43408300       0.66015200       0.73907300
    20  O          0.06591700       0.16015200       0.76092700
    21  O          0.60504900       0.41121900       0.11772700
    22  O          0.89495100       0.91121900       0.38227300
    23  O          0.39495100       0.58878100       0.88227300
    24  O          0.10504900       0.08878100       0.61772700
    25  N          0.64604800       0.66594800       0.63111700
    26  N          0.85395200       0.16594800       0.86888300
    27  N          0.35395200       0.33405200       0.36888300
    28  N          0.14604800       0.83405200       0.13111700
    29  H          0.64661200       0.70851400       0.68901200
    30  H          0.85338800       0.20851400       0.81098800
    31  H          0.35338800       0.29148600       0.31098800
    32  H          0.14661200       0.79148600       0.18901200
    33  N          0.62637800       0.40057900       0.21780700
    34  N          0.87362200       0.90057900       0.28219300
    35  N          0.37362200       0.59942100       0.78219300
    36  N          0.12637800       0.09942100       0.71780700
    37  C          0.58882800       0.71392900       0.53011800
    38  C          0.91117200       0.21392900       0.96988200
    39  C          0.41117200       0.28607100       0.46988200
    40  C          0.08882800       0.78607100       0.03011800
    41  C          0.53836100       0.83900100       0.53612100
    42  C          0.96163900       0.33900100       0.96387900
    43  C          0.46163900       0.16099900       0.46387900
    44  C          0.03836100       0.66099900       0.03612100
    45  H          0.53836600       0.85563800       0.61148500
    46  H          0.96163400       0.35563800       0.88851500
    47  H          0.46163400       0.14436200       0.38851500
    48  H          0.03836600       0.64436200       0.11148500
    49  H          0.45766700       0.84223700       0.48763800
    50  H          0.04233300       0.34223700       0.01236200
    51  H          0.54233300       0.15776300       0.51236200
    52  H          0.95766700       0.65776300       0.98763800
    53  H          0.58612800       0.90073800       0.51317100
    54  H          0.91387200       0.40073800       0.98682900
    55  H          0.41387200       0.09926200       0.48682900
    56  H          0.08612800       0.59926200       0.01317100
    57  C          0.58162800       0.64829900       0.43812800
    58  C          0.91837200       0.14829900       0.06187200
    59  C          0.41837200       0.35170100       0.56187200
    60  C          0.08162800       0.85170100       0.93812800
    61  C          0.51734800       0.69934900       0.33106800
    62  C          0.98265200       0.19934900       0.16893200
    63  C          0.48265200       0.30065100       0.66893200
    64  C          0.01734800       0.80065100       0.83106800
    65  C          0.45579100       0.66488120       0.14083900
    66  C          0.04420900       0.16488120       0.35916100
    67  C          0.54420900       0.33511880       0.85916100
    68  C          0.95579100       0.83511880       0.64083900
    69  H          0.45481000       0.60066700       0.08694400
    70  H          0.04519000       0.10066700       0.41305600
    71  H          0.54519000       0.39933300       0.91305600
    72  H          0.95481000       0.89933300       0.58694400
    73  H          0.49997200       0.73575200       0.12693500
    74  H          0.00002800       0.23575200       0.37306500
    75  H          0.50002800       0.26424800       0.87306500
    76  H         -0.00002800       0.76424800       0.62693500
    77  H          0.37506300       0.68978600       0.13486900
    78  H          0.12493700       0.18978600       0.36513100
    79  H          0.62493700       0.31021400       0.86513100
    80  H          0.87506300       0.81021400       0.63486900
    81  C          0.63721800       0.52165800       0.44154700
    82  C          0.86278200       0.02165800       0.05845300
    83  C          0.36278200       0.47834200       0.55845300
    84  C          0.13721800       0.97834200       0.94154700
    85  H          0.57497400       0.46229500       0.40265500
    86  H          0.92502600       0.96229500       0.09734500
    87  H          0.42502600       0.53770500       0.59734500
    88  H          0.07497400       0.03770500       0.90265500
    89  C          0.69043800       0.47763800       0.55952800
    90  C          0.80956200       0.97763800       0.94047200
    91  C          0.30956200       0.52236200       0.44047200
    92  C          0.19043800       0.02236200       0.05952800
    93  C          0.74514800       0.35548900       0.57607800
    94  C          0.75485200       0.85548900       0.92392200
    95  C          0.25485200       0.64451100       0.42392200
    96  C          0.24514800       0.14451100       0.07607800
    97  C          0.78229100       0.17986900       0.48085900
    98  C          0.71770900       0.67986900       0.01914100
    99  C          0.21770900       0.82013100       0.51914100
   100  C          0.28229100       0.32013100       0.98085900
   101  H          0.78446300       0.16033900       0.40661000
   102  H          0.71553700       0.66033900       0.09339000
   103  H          0.21553700       0.83966100       0.59339000
   104  H          0.28446300       0.33966100       0.90661000
   105  H          0.73921000       0.11561100       0.50654500
   106  H          0.76079000       0.61561100      -0.00654500
   107  H          0.26079000       0.88438900       0.49345500
   108  H          0.23921000       0.38438900       0.00654500
   109  H          0.86266400       0.18469900       0.52984400
   110  H          0.63733600       0.68469900       0.97015600
   111  H          0.13733600       0.81530100       0.47015600
   112  H          0.36266400       0.31530100       0.02984400
   113  C          0.69215800       0.54928900       0.64685800
   114  C          0.80784200       0.04928900       0.85314200
   115  C          0.30784200       0.45071100       0.35314200
   116  C          0.19215800       0.95071100       0.14685800
   117  C          0.73918900       0.51705100       0.76557800
   118  C          0.76081100       0.01705100       0.73442200
   119  C          0.26081100       0.48294900       0.23442200
   120  C          0.23918900       0.98294900       0.26557800
   121  H          0.81888900       0.54980900       0.79469600
   122  H          0.68111100       0.04980900       0.70530400
   123  H          0.18111100       0.45019100       0.20530400
   124  H          0.31888900       0.95019100       0.29469600
   125  H          0.74097700       0.42770400       0.77389500
   126  H          0.75902300       0.92770400       0.72610500
   127  H          0.25902300       0.57229600       0.22610500
   128  H          0.24097700       0.07229600       0.27389500
   129  H          0.68845200       0.55256100       0.80579600
   130  H          0.81154800       0.05256100       0.69420400
   131  H          0.31154800       0.44743900       0.19420400
   132  H          0.18845200       0.94743900       0.30579600
   133  C          0.73353800       0.52379900       0.38362800
   134  C          0.76646200       0.02379900       0.11637200
   135  C          0.26646200       0.47620100       0.61637200
   136  C          0.23353800       0.97620100       0.88362800
   137  C          0.83508900       0.59059900       0.43365900
   138  C          0.66491100       0.09059900       0.06634100
   139  C          0.16491100       0.40940100       0.56634100
   140  C          0.33508900       0.90940100       0.93365900
   141  H          0.83926000       0.63485600       0.49870400
   142  H          0.66074000       0.13485600       0.00129600
   143  H          0.16074000       0.36514400       0.50129600
   144  H          0.33926000       0.86514400      -0.00129600
   145  C          0.93029900       0.59452100       0.39150100
   146  C          0.56970100       0.09452100       0.10849900
   147  C          0.06970100       0.40547900       0.60849900
   148  C          0.43029900       0.90547900       0.89150100
   149  H         -0.00226900       0.64147500       0.42744100
   150  H          0.50226900       0.14147500       0.07255900
   151  H          0.00226900       0.35852500       0.57255900
   152  H          0.49773100       0.85852500       0.92744100
   153  C          0.92704100       0.53014110       0.29721100
   154  C          0.57295900       0.03014110       0.20278900
   155  C          0.07295900       0.46985890       0.70278900
   156  C          0.42704100       0.96985890       0.79721100
   157  H         -0.00662200       0.52943700       0.27016800
   158  H          0.50662200       0.02943700       0.22983200
   159  H          0.00662200       0.47056300       0.72983200
   160  H          0.49337800       0.97056300       0.77016800
   161  C          0.82622100       0.46692100       0.24290900
   162  C          0.67377900       0.96692100       0.25709100
   163  C          0.17377900       0.53307900       0.75709100
   164  C          0.32622100       0.03307900       0.74290900
   165  H          0.82179200       0.42467300       0.17680100
   166  H          0.67820800       0.92467300       0.32319900
   167  H          0.17820800       0.57532700       0.82319900
   168  H          0.32179200       0.07532700       0.67680100
   169  C          0.73124900       0.46552900       0.28563800
   170  C          0.76875100       0.96552900       0.21436200
   171  C          0.26875100       0.53447100       0.71436200
   172  C          0.23124900       0.03447100       0.78563800
