data_BICCIZ02
_symmetry_space_group_name_H-M    'P1'
_symmetry_Int_Tables_number       1
loop_
_symmetry_equiv_pos_site_id
_symmetry_equiv_pos_as_xyz
1 x,y,z
_cell_length_a                   9.66616
_cell_length_b                   13.70068
_cell_length_c                   14.11849
_cell_angle_alpha                61.0283
_cell_angle_beta                 79.6314
_cell_angle_gamma                81.9044
loop_
_atom_site_label
_atom_site_type_symbol
_atom_site_fract_x
_atom_site_fract_y
_atom_site_fract_z
     1  O          0.74494850       0.09695120       0.75762120
     2  O          0.25505150       0.90304880       0.24237880
     3  O          0.82993860       0.22315110       0.58909110
     4  O          0.17006140       0.77684890       0.41090890
     5  O          0.30413150       0.15234110       0.39957110
     6  O          0.69586850       0.84765890       0.60042890
     7  O          0.32964140       0.97699890       0.42578110
     8  O          0.67035860       0.02300110       0.57421890
     9  O          0.02774150       0.30798120       0.35773110
    10  O          0.97225850       0.69201880       0.64226890
    11  O          0.95483850       0.44336110       0.39555120
    12  O          0.04516150       0.55663890       0.60444880
    13  N          0.09697170       0.88112860       0.73576130
    14  N          0.90302830       0.11887140       0.26423870
    15  H          0.11020000       0.80980000       0.78961900
    16  H          0.88980000       0.19020000       0.21038100
    17  N          0.02668170       0.35633130       0.41156130
    18  N          0.97331830       0.64366870       0.58843870
    19  C          0.98518000       0.94893840       0.74945160
    20  C          0.01482000       0.05106160       0.25054840
    21  C          0.89668000       0.89497840       0.85874160
    22  C          0.10332000       0.10502160       0.14125840
    23  H          0.80310000       0.88430000       0.84900000
    24  H          0.19690000       0.11570000       0.15100000
    25  H          0.88730000       0.94310000       0.89330000
    26  H          0.11270000       0.05690000       0.10670000
    27  H          0.94200000       0.82240000       0.90520000
    28  H          0.05800000       0.17760000       0.09480000
    29  C          0.96338000       0.05388150       0.66847150
    30  C          0.03662000       0.94611850       0.33152850
    31  C          0.83658000       0.12220160       0.68018170
    32  C          0.16342000       0.87779840       0.31981830
    33  C          0.70718000       0.29480190       0.59352000
    34  C          0.29282000       0.70519810       0.40648000
    35  H          0.71230000       0.36650000       0.52630000
    36  H          0.28770000       0.63350000       0.47370000
    37  H          0.70360000       0.30750000       0.65650000
    38  H          0.29640000       0.69250000       0.34350000
    39  H          0.62220000       0.25910000       0.60060000
    40  H          0.37780000       0.74090000       0.39940000
    41  C          0.06832000       0.10468150       0.56480150
    42  C          0.93168000       0.89531850       0.43519850
    43  H          0.01510000       0.13880000       0.50030000
    44  H          0.98490000       0.86120000       0.49970000
    45  C          0.17542000       0.01554150       0.55622150
    46  C          0.82458000       0.98445850       0.44377850
    47  C          0.27392000       0.05547150       0.45448160
    48  C          0.72608000       0.94452850       0.54551840
    49  C          0.43582000       0.01282170       0.33154160
    50  C          0.56418000       0.98717830       0.66845840
    51  H          0.39590000       0.07470000       0.26850000
    52  H          0.60410000       0.92530000       0.73150000
    53  H          0.46760000       0.95030000       0.31590000
    54  H          0.53240000       0.04970000       0.68410000
    55  H          0.51590000       0.03780000       0.34620000
    56  H          0.48410000       0.96220000       0.65380000
    57  C          0.18662000       0.91074850       0.63932150
    58  C          0.81338000       0.08925150       0.36067850
    59  C          0.28842000       0.81597840       0.64221160
    60  C          0.71158000       0.18402160       0.35778840
    61  H          0.30200000       0.76320000       0.71800000
    62  H          0.69800000       0.23680000       0.28200000
    63  H          0.37900000       0.84540000       0.60040000
    64  H          0.62100000       0.15460000       0.39960000
    65  H          0.25060000       0.77760000       0.61010000
    66  H          0.74940000       0.22240000       0.38990000
    67  C          0.14173190       0.19719150       0.56418150
    68  C          0.85826810       0.80280850       0.43581850
    69  C          0.23364190       0.16663160       0.64122150
    70  C          0.76635810       0.83336840       0.35877850
    71  H          0.25170000       0.08950000       0.68900000
    72  H          0.74830000       0.91050000       0.31100000
    73  C          0.29932000       0.24426170       0.65065160
    74  C          0.70068000       0.75573830       0.34934840
    75  H          0.36250000       0.22010000       0.70330000
    76  H          0.63750000       0.77990000       0.29670000
    77  C          0.27292000       0.35754170       0.58328160
    78  C          0.72708000       0.64245830       0.41671840
    79  H          0.31750000       0.41130000       0.58960000
    80  H          0.68250000       0.58870000       0.41040000
    81  C          0.18142000       0.39136160       0.50714160
    82  C          0.81858000       0.60863840       0.49285840
    83  H          0.16080000       0.46870000       0.46160000
    84  H          0.83920000       0.53130000       0.53840000
    85  C          0.11982000       0.31224150       0.49732150
    86  C          0.88018000       0.68775850       0.50267850
    87  O          0.42200150       0.36294120       0.76654120
    88  O          0.57799850       0.63705880       0.23345880
    89  O          0.47927140       0.24937110       0.93490110
    90  O          0.52072860       0.75062890       0.06509890
    91  O          0.83353160       0.35001110       0.09086110
    92  O          0.16646840       0.64998890       0.90913890
    93  O          0.78536150       0.52432110       0.06711110
    94  O          0.21463850       0.47567890       0.93288890
    95  O          0.63732150       0.16948110       0.13954110
    96  O          0.36267850       0.83051890       0.86045890
    97  O          0.66626160       0.02982110       0.10562120
    98  O          0.33373840       0.97017890       0.89437880
    99  N          0.64074180       0.60924140       0.77277140
   100  N          0.35925820       0.39075860       0.22722860
   101  H          0.64720000       0.67551900       0.71811900
   102  H          0.35280000       0.32448100       0.28188100
   103  N          0.68757170       0.12597130       0.08202130
   104  N          0.31242830       0.87402870       0.91797870
   105  C          0.56695190       0.53472160       0.76564150
   106  C          0.43304810       0.46527840       0.23435850
   107  C          0.49662000       0.58356170       0.66406160
   108  C          0.50338000       0.41643830       0.33593840
   109  H          0.39410000       0.58280000       0.68400000
   110  H          0.60590000       0.41720000       0.31600000
   111  H          0.52690000       0.53900000       0.62590000
   112  H          0.47310000       0.46100000       0.37410000
   113  H          0.52290000       0.66070000       0.61610000
   114  H          0.47710000       0.33930000       0.38390000
   115  C          0.56273190       0.42793150       0.84649150
   116  C          0.43726810       0.57206850       0.15350850
   117  C          0.48152000       0.34819160       0.84153160
   118  C          0.51848000       0.65180840       0.15846840
   119  C          0.41552000       0.16116170       0.93335180
   120  C          0.58448000       0.83883830       0.06664820
   121  H          0.47050000       0.14260000       0.87810000
   122  H          0.52950000       0.85740000       0.12190000
   123  H          0.31900000       0.18610000       0.91560000
   124  H          0.68100000       0.81390000       0.08440000
   125  H          0.41350000       0.09490000       0.00530000
   126  H          0.58650000       0.90510000      -0.00530000
   127  C          0.65125190       0.38315150       0.93986150
   128  C          0.34874810       0.61684850       0.06013850
   129  H          0.59100000       0.33930000       0.01030000
   130  H          0.40900000       0.66070000      -0.01030000
   131  C          0.70886190       0.47849150       0.94442150
   132  C          0.29113810       0.52150850       0.05557850
   133  C          0.78112000       0.44413150       0.04000150
   134  C          0.21888000       0.55586850       0.95999850
   135  C          0.86632000       0.49713180       0.15437170
   136  C          0.13368000       0.50286820       0.84562830
   137  H          0.96700000       0.49350000       0.12840000
   138  H          0.03300000       0.50650000       0.87160000
   139  H          0.84080000       0.42460000       0.21610000
   140  H          0.15920000       0.57540000       0.78390000
   141  H          0.84600000       0.55490000       0.17780000
   142  H          0.15400000       0.44510000       0.82220000
   143  C          0.70392000       0.58416160       0.86291150
   144  C          0.29608000       0.41583840       0.13708850
   145  C          0.76122000       0.68413150       0.85602160
   146  C          0.23878000       0.31586850       0.14397840
   147  H          0.77550000       0.74190000       0.77960000
   148  H          0.22450000       0.25810000       0.22040000
   149  H          0.85140000       0.66210000       0.88570000
   150  H          0.14860000       0.33790000       0.11430000
   151  H          0.69420000       0.71360000       0.89830000
   152  H          0.30580000       0.28640000       0.10170000
   153  C          0.77002000       0.30479150       0.92166150
   154  C          0.22998000       0.69520850       0.07833850
   155  C          0.86912000       0.35180160       0.82970150
   156  C          0.13088000       0.64819840       0.17029850
   157  H          0.86390000       0.43070000       0.78550000
   158  H          0.13610000       0.56930000       0.21450000
   159  C          0.97482000       0.28914170       0.79954170
   160  C          0.02518000       0.71085830       0.20045830
   161  H          0.04180000       0.32510000       0.73710000
   162  H          0.95820000       0.67490000       0.26290000
   163  C          0.98252000       0.17380170       0.86077170
   164  C          0.01748000       0.82619830       0.13922830
   165  H          0.05430000       0.12980000       0.84060000
   166  H          0.94570000       0.87020000       0.15940000
   167  C          0.88482000       0.12368160       0.95120160
   168  C          0.11518000       0.87631840       0.04879840
   169  H          0.88730000       0.04450000      -0.00720000
   170  H          0.11270000       0.95550000       0.00720000
   171  C          0.78302000       0.18828150       0.98156150
   172  C          0.21698000       0.81171850       0.01843850
