data_BILCOO11
_symmetry_space_group_name_H-M    'P1'
_symmetry_Int_Tables_number       1
loop_
_symmetry_equiv_pos_site_id
_symmetry_equiv_pos_as_xyz
1 x,y,z
_cell_length_a                   13.2615
_cell_length_b                   6.5663
_cell_length_c                   15.2085
_cell_angle_alpha                90.0
_cell_angle_beta                 92.262
_cell_angle_gamma                90.0
loop_
_atom_site_label
_atom_site_type_symbol
_atom_site_fract_x
_atom_site_fract_y
_atom_site_fract_z
     1  C          0.63503000       0.70834000       0.01392000
     2  C          0.36497000       0.20834000       0.48608000
     3  C          0.36497000       0.29166000       0.98608000
     4  C          0.63503000       0.79166000       0.51392000
     5  H          0.62000000       0.78820000       0.96130000
     6  H          0.38000000       0.28820000       0.53870000
     7  H          0.38000000       0.21180000       0.03870000
     8  H          0.62000000       0.71180000       0.46130000
     9  H          0.58750000       0.59660000       0.01680000
    10  H          0.41250000       0.09660000       0.48320000
    11  H          0.41250000       0.40340000       0.98320000
    12  H          0.58750000       0.90340000       0.51680000
    13  H          0.70300000       0.65460000       0.01200000
    14  H          0.29700000       0.15460000       0.48800000
    15  H          0.29700000       0.34540000       0.98800000
    16  H          0.70300000       0.84540000       0.51200000
    17  C          0.62672000       0.84135000       0.09392000
    18  C          0.37328000       0.34135000       0.40608000
    19  C          0.37328000       0.15865000       0.90608000
    20  C          0.62672000       0.65865000       0.59392000
    21  C          0.64432000       0.76225000       0.17752000
    22  C          0.35568000       0.26225000       0.32248000
    23  C          0.35568000       0.23775000       0.82248000
    24  C          0.64432000       0.73775000       0.67752000
    25  H          0.65980000       0.62330000       0.18400000
    26  H          0.34020000       0.12330000       0.31600000
    27  H          0.34020000       0.37670000       0.81600000
    28  H          0.65980000       0.87670000       0.68400000
    29  C          0.63952000       0.88255000       0.25142000
    30  C          0.36048000       0.38255000       0.24858000
    31  C          0.36048000       0.11745000       0.74858000
    32  C          0.63952000       0.61745000       0.75142000
    33  H          0.65100000       0.82560000       0.30760000
    34  H          0.34900000       0.32560000       0.19240000
    35  H          0.34900000       0.17440000       0.69240000
    36  H          0.65100000       0.67440000       0.80760000
    37  C          0.61772000       0.08745000       0.24255190
    38  C          0.38228000       0.58745000       0.25744810
    39  C          0.38228000       0.91255000       0.75744810
    40  C          0.61772000       0.41255000       0.74255190
    41  C          0.59632000       0.16895000       0.15972000
    42  C          0.40368000       0.66895000       0.34028000
    43  C          0.40368000       0.83105000       0.84028000
    44  C          0.59632000       0.33105000       0.65972000
    45  H          0.57890000       0.30710000       0.15370000
    46  H          0.42110000       0.80710000       0.34630000
    47  H          0.42110000       0.69290000       0.84630000
    48  H          0.57890000       0.19290000       0.65370000
    49  C          0.60072000       0.04665000       0.08642000
    50  C          0.39928000       0.54665000       0.41358000
    51  C          0.39928000       0.95335000       0.91358000
    52  C          0.60072000       0.45335000       0.58642000
    53  H          0.58580000       0.10240000       0.03050000
    54  H          0.41420000       0.60240000       0.46950000
    55  H          0.41420000       0.89760000       0.96950000
    56  H          0.58580000       0.39760000       0.53050000
    57  S          0.62268500       0.25156140       0.33589500
    58  S          0.37731500       0.75156140       0.16410500
    59  S          0.37731500       0.74843860       0.66410500
    60  S          0.62268500       0.24843860       0.83589500
    61  S          0.77849500       0.25582130       0.36438500
    62  S          0.22150500       0.75582130       0.13561500
    63  S          0.22150500       0.74417870       0.63561500
    64  S          0.77849500       0.24417870       0.86438500
    65  O          0.81689160       0.05373000       0.36392150
    66  O          0.18310840       0.55373000       0.13607850
    67  O          0.18310840       0.94627000       0.63607850
    68  O          0.81689160       0.44627000       0.86392150
    69  O          0.78686160       0.37424000       0.44414140
    70  O          0.21313840       0.87424000       0.05585860
    71  O          0.21313840       0.62576000       0.55585860
    72  O          0.78686160       0.12576000       0.94414140
    73  C          0.83132000       0.39495000       0.27800190
    74  C          0.16868000       0.89495000       0.22199810
    75  C          0.16868000       0.60505000       0.72199810
    76  C          0.83132000       0.10505000       0.77800190
    77  C          0.83822000       0.30415000       0.19582000
    78  C          0.16178000       0.80415000       0.30418000
    79  C          0.16178000       0.69585000       0.80418000
    80  C          0.83822000       0.19585000       0.69582000
    81  H          0.81960000       0.16720000       0.18690000
    82  H          0.18040000       0.66720000       0.31310000
    83  H          0.18040000       0.83280000       0.81310000
    84  H          0.81960000       0.33280000       0.68690000
    85  C          0.87322000       0.42045000       0.12732000
    86  C          0.12678000       0.92045000       0.37268000
    87  C          0.12678000       0.57955000       0.87268000
    88  C          0.87322000       0.07955000       0.62732000
    89  H          0.87640000       0.36210000       0.07110000
    90  H          0.12360000       0.86210000       0.42890000
    91  H          0.12360000       0.63790000       0.92890000
    92  H          0.87640000       0.13790000       0.57110000
    93  C          0.90382000       0.62235000       0.14002000
    94  C          0.09618000       0.12235000       0.35998000
    95  C          0.09618000       0.37765000       0.85998000
    96  C          0.90382000       0.87765000       0.64002000
    97  C          0.90052000       0.70355000       0.22422000
    98  C          0.09948000       0.20355000       0.27578000
    99  C          0.09948000       0.29645000       0.77578000
   100  C          0.90052000       0.79645000       0.72422000
   101  H          0.92420000       0.83660000       0.23470000
   102  H          0.07580000       0.33660000       0.26530000
   103  H          0.07580000       0.16340000       0.76530000
   104  H          0.92420000       0.66340000       0.73470000
   105  C          0.86292000       0.59235000       0.29322000
   106  C          0.13708000       0.09235000       0.20678000
   107  C          0.13708000       0.40765000       0.70678000
   108  C          0.86292000       0.90765000       0.79322000
   109  H          0.85910000       0.65050000       0.34940000
   110  H          0.14090000       0.15050000       0.15060000
   111  H          0.14090000       0.34950000       0.65060000
   112  H          0.85910000       0.84950000       0.84940000
   113  C          0.93623000       0.75036000       0.06422000
   114  C          0.06377000       0.25036000       0.43578000
   115  C          0.06377000       0.24964000       0.93578000
   116  C          0.93623000       0.74964000       0.56422000
   117  H          0.93380000       0.66920000       0.01090000
   118  H          0.06620000       0.16920000       0.48910000
   119  H          0.06620000       0.33080000       0.98910000
   120  H          0.93380000       0.83080000       0.51090000
   121  H          0.00460000       0.79840000       0.07610000
   122  H         -0.00460000       0.29840000       0.42390000
   123  H         -0.00460000       0.20160000       0.92390000
   124  H          0.00460000       0.70160000       0.57610000
   125  H          0.89120000       0.86600000       0.05680000
   126  H          0.10880000       0.36600000       0.44320000
   127  H          0.10880000       0.13400000       0.94320000
   128  H          0.89120000       0.63400000       0.55680000
