data_BILCOO13
_symmetry_space_group_name_H-M    'P1'
_symmetry_Int_Tables_number       1
loop_
_symmetry_equiv_pos_site_id
_symmetry_equiv_pos_as_xyz
1 x,y,z
_cell_length_a                   15.2454
_cell_length_b                   6.657617
_cell_length_c                   15.2284
_cell_angle_alpha                90.0
_cell_angle_beta                 118.2687
_cell_angle_gamma                90.0
loop_
_atom_site_label
_atom_site_type_symbol
_atom_site_fract_x
_atom_site_fract_y
_atom_site_fract_z
     1  S          0.22285600       0.74730130       0.22341600
     2  S          0.77714400       0.24730130       0.27658400
     3  S          0.77714400       0.25269870       0.77658400
     4  S          0.22285600       0.75269870       0.72341600
     5  S          0.37678600       0.75288140       0.27381600
     6  S          0.62321400       0.25288140       0.22618400
     7  S          0.62321400       0.24711860       0.72618400
     8  S          0.37678600       0.74711860       0.77381600
     9  O          0.18494190       0.94624000       0.20273190
    10  O          0.81505810       0.44624000       0.29726810
    11  O          0.81505810       0.05376000       0.79726810
    12  O          0.18494190       0.55376000       0.70273190
    13  O          0.21442000       0.63074000       0.29823180
    14  O          0.78558000       0.13074000       0.20176820
    15  O          0.78558000       0.36926000       0.70176820
    16  O          0.21442000       0.86926000       0.79823180
    17  C          0.17112000       0.61045000       0.11092000
    18  C          0.82888000       0.11045000       0.38908000
    19  C          0.82888000       0.38955000       0.88908000
    20  C          0.17112000       0.88955000       0.61092000
    21  C          0.14192000       0.41385000       0.10993000
    22  C          0.85808000       0.91385000       0.39007000
    23  C          0.85808000       0.58615000       0.89007000
    24  C          0.14192000       0.08615000       0.60993000
    25  H          0.14730000       0.35510000       0.16760000
    26  H          0.85270000       0.85510000       0.33240000
    27  H          0.85270000       0.64490000       0.83240000
    28  H          0.14730000       0.14490000       0.66760000
    29  C          0.10473000       0.30496000       0.02243000
    30  C          0.89527000       0.80496000       0.47757000
    31  C          0.89527000       0.69504000       0.97757000
    32  C          0.10473000       0.19504000       0.52243000
    33  H          0.08330000       0.17360000       0.02120000
    34  H          0.91670000       0.67360000       0.47880000
    35  H          0.91670000       0.82640000       0.97880000
    36  H          0.08330000       0.32640000       0.52120000
    37  C          0.09862000       0.38846000       0.93637000
    38  C          0.90138000       0.88846000       0.56363000
    39  C          0.90138000       0.61154000       0.06363000
    40  C          0.09862000       0.11154000       0.43637000
    41  C          0.12743000       0.58736000       0.93907000
    42  C          0.87257000       0.08736000       0.56093000
    43  C          0.87257000       0.41264000       0.06093000
    44  C          0.12743000       0.91264000       0.43907000
    45  H          0.12270000       0.64550000       0.88150000
    46  H          0.87730000       0.14550000       0.61850000
    47  H          0.87730000       0.35450000       0.11850000
    48  H          0.12270000       0.85450000       0.38150000
    49  C          0.16272000       0.70115000       0.02493000
    50  C          0.83728000       0.20115000       0.47507000
    51  C          0.83728000       0.29885000       0.97507000
    52  C          0.16272000       0.79885000       0.52493000
    53  H          0.18050000       0.83490000       0.02520000
    54  H          0.81950000       0.33490000       0.47480000
    55  H          0.81950000       0.16510000       0.97480000
    56  H          0.18050000       0.66510000       0.52520000
    57  C          0.38222000       0.91425000       0.18372000
    58  C          0.61778000       0.41425000       0.31628000
    59  C          0.61778000       0.08575000       0.81628000
    60  C          0.38222000       0.58575000       0.68372000
    61  C          0.40182000       0.83465000       0.11073000
    62  C          0.59818000       0.33465000       0.38927000
    63  C          0.59818000       0.16535000       0.88927000
    64  C          0.40182000       0.66535000       0.61073000
    65  H          0.41740000       0.69910000       0.11220000
    66  H          0.58260000       0.19910000       0.38780000
    67  H          0.58260000       0.30090000       0.88780000
    68  H          0.41740000       0.80090000       0.61220000
    69  C          0.39813000       0.95676000       0.03593000
    70  C          0.60187000       0.45676000       0.46407000
    71  C          0.60187000       0.04324000       0.96407000
    72  C          0.39813000       0.54324000       0.53593000
    73  H          0.41140000       0.90250000       0.98710000
    74  H          0.58860000       0.40250000       0.51290000
    75  H          0.58860000       0.09750000       0.01290000
    76  H          0.41140000       0.59750000       0.48710000
    77  C          0.37502000       0.15966000       0.03223000
    78  C          0.62498000       0.65966000       0.46777000
    79  C          0.62498000       0.84034000       0.96777000
    80  C          0.37502000       0.34034000       0.53223000
    81  C          0.35912000       0.23655000       0.10743000
    82  C          0.64088000       0.73655000       0.39257000
    83  C          0.64088000       0.76345000       0.89257000
    84  C          0.35912000       0.26345000       0.60743000
    85  H          0.34540000       0.37270000       0.10720000
    86  H          0.65460000       0.87270000       0.39280000
    87  H          0.65460000       0.62730000       0.89280000
    88  H          0.34540000       0.12730000       0.60720000
    89  C          0.36273000       0.11725000       0.18273000
    90  C          0.63727000       0.61725000       0.31727000
    91  C          0.63727000       0.88275000       0.81727000
    92  C          0.36273000       0.38275000       0.68273000
    93  H          0.35210000       0.17290000       0.23290000
    94  H          0.64790000       0.67290000       0.26710000
    95  H          0.64790000       0.82710000       0.76710000
    96  H          0.35210000       0.32710000       0.73290000
    97  C          0.36743000       0.28936000       0.94827000
    98  C          0.63257000       0.78936000       0.55173000
    99  C          0.63257000       0.71064000       0.05173000
   100  C          0.36743000       0.21064000       0.44827000
   101  H          0.35070000       0.42400000       0.95730000
   102  H          0.64930000       0.92400000       0.54270000
   103  H          0.64930000       0.57600000       0.04270000
   104  H          0.35070000       0.07600000       0.45730000
   105  H          0.31660000       0.23730000       0.88610000
   106  H          0.68340000       0.73730000       0.61390000
   107  H          0.68340000       0.76270000       0.11390000
   108  H          0.31660000       0.26270000       0.38610000
   109  H          0.43010000       0.28960000       0.94770000
   110  H          0.56990000       0.78960000       0.55230000
   111  H          0.56990000       0.71040000       0.05230000
   112  H          0.43010000       0.21040000       0.44770000
   113  C          0.06213000       0.26517000       0.84297000
   114  C          0.93787000       0.76517000       0.65703000
   115  C          0.93787000       0.73483000       0.15703000
   116  C          0.06213000       0.23483000       0.34297000
   117  H          0.06280000       0.34530000       0.79100000
   118  H          0.93720000       0.84530000       0.70900000
   119  H          0.93720000       0.65470000       0.20900000
   120  H          0.06280000       0.15470000       0.29100000
   121  H         -0.00460000       0.22040000       0.82290000
   122  H          0.00460000       0.72040000       0.67710000
   123  H          0.00460000       0.77960000       0.17710000
   124  H         -0.00460000       0.27960000       0.32290000
   125  H          0.10480000       0.15070000       0.85550000
   126  H          0.89520000       0.65070000       0.64450000
   127  H          0.89520000       0.84930000       0.14450000
   128  H          0.10480000       0.34930000       0.35550000
