data_BILCOO10
_symmetry_space_group_name_H-M    'P1'
_symmetry_Int_Tables_number       1
loop_
_symmetry_equiv_pos_site_id
_symmetry_equiv_pos_as_xyz
1 x,y,z
_cell_length_a                   13.9326
_cell_length_b                   12.0766
_cell_length_c                   8.3264
_cell_angle_alpha                90.0
_cell_angle_beta                 93.406
_cell_angle_gamma                90.0
loop_
_atom_site_label
_atom_site_type_symbol
_atom_site_fract_x
_atom_site_fract_y
_atom_site_fract_z
     1  S          0.70141110       0.43687120       0.19492170
     2  S          0.79858890       0.93687120       0.30507830
     3  S          0.29858890       0.56312880       0.80507830
     4  S          0.20141110       0.06312880       0.69492170
     5  S          0.80089100       0.49996120       0.04084190
     6  S          0.69910900      -0.00003880       0.45915810
     7  S          0.19910900       0.50003880       0.95915810
     8  S          0.30089100       0.00003880       0.54084190
     9  O          0.76100290       0.39609320       0.32729460
    10  O          0.73899710       0.89609320       0.17270540
    11  O          0.23899710       0.60390680       0.67270540
    12  O          0.26100290       0.10390680       0.82729460
    13  O          0.63017280       0.51818290       0.22123440
    14  O          0.86982720       0.01818290       0.27876560
    15  O          0.36982720       0.48181710       0.77876560
    16  O          0.13017280       0.98181710       0.72123440
    17  C          0.64744000       0.32524000       0.08936000
    18  C          0.85256000       0.82524000       0.41064000
    19  C          0.35256000       0.67476000       0.91064000
    20  C          0.14744000       0.17476000       0.58936000
    21  C          0.69504000       0.22564000       0.08417000
    22  C          0.80496000       0.72564000       0.41583000
    23  C          0.30496000       0.77436000       0.91583000
    24  C          0.19504000       0.27436000       0.58417000
    25  C          0.65434000       0.14125000      -0.00557000
    26  C          0.84566000       0.64125000       0.50557000
    27  C          0.34566000       0.85875000       0.00557000
    28  C          0.15434000       0.35875000       0.49443000
    29  C          0.56794000       0.15344000       0.90664000
    30  C          0.93206000       0.65344000       0.59336000
    31  C          0.43206000       0.84656000       0.09336000
    32  C          0.06794000       0.34656000       0.40664000
    33  C          0.52124000       0.25335000       0.91443000
    34  C          0.97876000       0.75335000       0.58557000
    35  C          0.47876000       0.74665000       0.08557000
    36  C          0.02124000       0.24665000       0.41443000
    37  C          0.55964000       0.33935000       0.00597000
    38  C          0.94036000       0.83935000       0.49403000
    39  C          0.44036000       0.66065000      -0.00597000
    40  C          0.05964000       0.16065000       0.50597000
    41  C          0.72353000       0.56465000       0.89554000
    42  C          0.77647000       0.06465000       0.60446000
    43  C          0.27647000       0.43535000       0.10446000
    44  C          0.22353000       0.93535000       0.39554000
    45  C          0.68035000       0.50665000       0.76633000
    46  C          0.81965000       0.00665000       0.73367000
    47  C          0.31965000       0.49335000       0.23367000
    48  C          0.18035000      -0.00665000       0.26633000
    49  C          0.61965000       0.55897000       0.65692000
    50  C          0.88035000       0.05897000       0.84308000
    51  C          0.38035000       0.44103000       0.34308000
    52  C          0.11965000       0.94103000       0.15692000
    53  C          0.60044000       0.67026000       0.66862000
    54  C          0.89956000       0.17026000       0.83138000
    55  C          0.39956000       0.32974000       0.33138000
    56  C          0.10044000       0.82974000       0.16862000
    57  C          0.64585000       0.72776000       0.79401000
    58  C          0.85415000       0.22776000       0.70599000
    59  C          0.35415000       0.27224000       0.20599000
    60  C          0.14585000       0.77224000       0.29401000
    61  C          0.70675000       0.67795000       0.90562000
    62  C          0.79325000       0.17795000       0.59438000
    63  C          0.29325000       0.32205000       0.09438000
    64  C          0.20675000       0.82205000       0.40562000
    65  C          0.52576000       0.06077000       0.80308900
    66  C          0.97424000       0.56077000       0.69691100
    67  C          0.47424000       0.93923000       0.19691100
    68  C          0.02576000       0.43923000       0.30308900
    69  C          0.52991000       0.73021500       0.55481000
    70  C          0.97009000       0.23021500       0.94519000
    71  C          0.47009000       0.26978500       0.44519000
    72  C          0.02991000       0.76978500       0.05481000
    73  H          0.75030000       0.21030000       0.14850000
    74  H          0.74970000       0.71030000       0.35150000
    75  H          0.24970000       0.78970000       0.85150000
    76  H          0.25030000       0.28970000       0.64850000
    77  H          0.69040000       0.07650000      -0.01060000
    78  H          0.80960000       0.57650000       0.51060000
    79  H          0.30960000       0.92350000       0.01060000
    80  H          0.19040000       0.42350000       0.48940000
    81  H          0.46140000       0.25840000       0.85940000
    82  H          0.03860000       0.75840000       0.64060000
    83  H          0.53860000       0.74160000       0.14060000
    84  H          0.96140000       0.24160000       0.35940000
    85  H          0.53140000       0.39450000      -0.01280000
    86  H          0.96860000       0.89450000       0.51280000
    87  H          0.46860000       0.60550000       0.01280000
    88  H          0.03140000       0.10550000       0.48720000
    89  H          0.69930000       0.43440000       0.76150000
    90  H          0.80070000       0.93440000       0.73850000
    91  H          0.30070000       0.56560000       0.23850000
    92  H          0.19930000       0.06560000       0.26150000
    93  H          0.59340000       0.51950000       0.57430000
    94  H          0.90660000       0.01950000       0.92570000
    95  H          0.40660000       0.48050000       0.42570000
    96  H          0.09340000       0.98050000       0.07430000
    97  H          0.63430000       0.80340000       0.80440000
    98  H          0.86570000       0.30340000       0.69560000
    99  H          0.36570000       0.19660000       0.19560000
   100  H          0.13430000       0.69660000       0.30440000
   101  H          0.73040000       0.71540000      -0.00360000
   102  H          0.76960000       0.21540000       0.50360000
   103  H          0.26960000       0.28460000       0.00360000
   104  H          0.23040000       0.78460000       0.49640000
   105  H          0.45660000       0.07060000       0.80920000
   106  H          0.04340000       0.57060000       0.69080000
   107  H          0.54340000       0.92940000       0.19080000
   108  H          0.95660000       0.42940000       0.30920000
   109  H          0.54150000       0.06160000       0.68710000
   110  H          0.95850000       0.56160000       0.81290000
   111  H          0.45850000       0.93840000       0.31290000
   112  H          0.04150000       0.43840000       0.18710000
   113  H          0.55450000      -0.00360000       0.83590000
   114  H          0.94550000       0.49640000       0.66410000
   115  H          0.44550000       0.00360000       0.16410000
   116  H          0.05450000       0.50360000       0.33590000
   117  H          0.51570000       0.69070000       0.49010000
   118  H          0.98430000       0.19070000       0.00990000
   119  H          0.48430000       0.30930000       0.50990000
   120  H          0.01570000       0.80930000      -0.00990000
   121  H          0.46670000       0.71390000       0.57187000
   122  H          0.03330000       0.21390000       0.92813000
   123  H          0.53330000       0.28610000       0.42813000
   124  H          0.96670000       0.78610000       0.07187000
   125  H          0.56250000       0.77260000       0.48710000
   126  H          0.93750000       0.27260000       0.01290000
   127  H          0.43750000       0.22740000       0.51290000
   128  H          0.06250000       0.72740000      -0.01290000
