data_BILNOC04
_symmetry_space_group_name_H-M    'P1'
_symmetry_Int_Tables_number       1
loop_
_symmetry_equiv_pos_site_id
_symmetry_equiv_pos_as_xyz
1 x,y,z
_cell_length_a                   9.726716
_cell_length_b                   9.726716
_cell_length_c                   13.5693
_cell_angle_alpha                90.0
_cell_angle_beta                 90.0
_cell_angle_gamma                120.0
loop_
_atom_site_label
_atom_site_type_symbol
_atom_site_fract_x
_atom_site_fract_y
_atom_site_fract_z
     1  I          0.21133000       0.35493000       0.41021200
     2  I          0.64507000       0.85640000       0.41021200
     3  I          0.14360000       0.78867000       0.41021200
     4  I          0.87799667       0.68826333       0.74354533
     5  I          0.31173667       0.18973333       0.74354533
     6  I          0.81026667       0.12200333       0.74354533
     7  I          0.54466333       0.02159667       0.07687867
     8  I         -0.02159667       0.52306667       0.07687867
     9  I          0.47693333       0.45533667       0.07687867
    10  N          0.33333300       0.66666700       0.23350000
    11  N         -0.00000033       0.00000033       0.56683333
    12  N          0.66666633       0.33333367       0.90016667
    13  N          0.66666700       0.33333300       0.45550000
    14  N          0.33333367       0.66666633       0.78883333
    15  N          0.00000033      -0.00000033       0.12216667
    16  C          0.67860000       0.48060000       0.41840000
    17  C          0.51940000       0.19800000       0.41840000
    18  C          0.80200000       0.32140000       0.41840000
    19  C          0.34526667       0.81393333       0.75173333
    20  C          0.18606667       0.53133333       0.75173333
    21  C          0.46866667       0.65473333       0.75173333
    22  C          0.01193333       0.14726667       0.08506667
    23  C          0.85273333       0.86466667       0.08506667
    24  C          0.13533333      -0.01193333       0.08506667
    25  C          0.70460000       0.48860000       0.31930000
    26  C          0.51140000       0.21600000       0.31930000
    27  C          0.78400000       0.29540000       0.31930000
    28  C          0.37126667       0.82193333       0.65263333
    29  C          0.17806667       0.54933333       0.65263333
    30  C          0.45066667       0.62873333       0.65263333
    31  C          0.03793333       0.15526667       0.98596667
    32  C          0.84473333       0.88266667       0.98596667
    33  C          0.11733333       0.96206667       0.98596667
    34  N          0.66666700       0.33333300       0.27250000
    35  N          0.33333367       0.66666633       0.60583333
    36  N          0.00000033      -0.00000033       0.93916667
    37  C          0.66666700       0.33333300       0.57260000
    38  C          0.33333367       0.66666633       0.90593333
    39  C          0.00000033      -0.00000033       0.23926667
    40  C          0.67820000       0.47940000       0.41840000
    41  C          0.34486667       0.81273333       0.75173333
    42  C          0.01153333       0.14606667       0.08506667
    43  C          0.70420000       0.48740000       0.31930000
    44  C          0.37086667       0.82073333       0.65263333
    45  C          0.03753333       0.15406667       0.98596667
    46  C          0.80280000       0.32260000       0.41840000
    47  C          0.46946667       0.65593333       0.75173333
    48  C          0.13613333      -0.01073333       0.08506667
    49  C          0.78480000       0.29660000       0.31930000
    50  C          0.45146667       0.62993333       0.65263333
    51  C          0.11813333       0.96326667       0.98596667
