data_BILNOC05
_symmetry_space_group_name_H-M    'P1'
_symmetry_Int_Tables_number       1
loop_
_symmetry_equiv_pos_site_id
_symmetry_equiv_pos_as_xyz
1 x,y,z
_cell_length_a                   9.571815
_cell_length_b                   9.571815
_cell_length_c                   13.3803
_cell_angle_alpha                90.0
_cell_angle_beta                 90.0
_cell_angle_gamma                120.0
loop_
_atom_site_label
_atom_site_type_symbol
_atom_site_fract_x
_atom_site_fract_y
_atom_site_fract_z
     1  I          0.18834000       0.30884000       0.66480000
     2  I          0.69116000       0.87950000       0.66480000
     3  I          0.12050000       0.81166000       0.66480000
     4  I          0.85500667       0.64217333      -0.00186667
     5  I          0.35782667       0.21283333      -0.00186667
     6  I          0.78716667       0.14499333      -0.00186667
     7  I          0.52167333       0.97550667       0.33146667
     8  I          0.02449333       0.54616667       0.33146667
     9  I          0.45383333       0.47832667       0.33146667
    10  N          0.00000000       0.00000000       0.85790000
    11  N          0.66666667       0.33333333       0.19123333
    12  N          0.33333333       0.66666667       0.52456667
    13  N          0.66666700       0.33333300       0.79210000
    14  N          0.33333367       0.66666633       0.12543333
    15  N          0.00000033      -0.00000033       0.45876667
    16  N          0.66666700       0.33333300       0.62011000
    17  N          0.33333367       0.66666633       0.95344333
    18  N          0.00000033      -0.00000033       0.28677667
    19  C          0.65670000       0.46670000       0.65190000
    20  C          0.53330000       0.19000000       0.65190000
    21  C          0.81000000       0.34330000       0.65190000
    22  C          0.32336667       0.80003333       0.98523333
    23  C          0.19996667       0.52333333       0.98523333
    24  C          0.47666667       0.67663333       0.98523333
    25  C         -0.00996667       0.13336667       0.31856667
    26  C          0.86663333       0.85666667       0.31856667
    27  C          0.14333333       0.00996667       0.31856667
    28  C          0.63670000       0.45470000       0.75590000
    29  C          0.54530000       0.18200000       0.75590000
    30  C          0.81800000       0.36330000       0.75590000
    31  C          0.30336667       0.78803333       0.08923333
    32  C          0.21196667       0.51533333       0.08923333
    33  C          0.48466667       0.69663333       0.08923333
    34  C          0.97003333       0.12136667       0.42256667
    35  C          0.87863333       0.84866667       0.42256667
    36  C          0.15133333       0.02996667       0.42256667
    37  C          0.66667000       0.33333000       0.51533000
    38  C          0.33333667       0.66666333       0.84866333
    39  C          0.00000333      -0.00000333       0.18199667
    40  C          0.53470000       0.19010000       0.65190000
    41  C          0.80990000       0.34460000       0.65190000
    42  C          0.65540000       0.46530000       0.65190000
    43  C          0.20136667       0.52343333       0.98523333
    44  C          0.47656667       0.67793333       0.98523333
    45  C          0.32206667       0.79863333       0.98523333
    46  C          0.86803333       0.85676667       0.31856667
    47  C          0.14323333       0.01126667       0.31856667
    48  C         -0.01126667       0.13196667       0.31856667
    49  C          0.54670000       0.18210000       0.75590000
    50  C          0.81790000       0.36460000       0.75590000
    51  C          0.63540000       0.45330000       0.75590000
    52  C          0.21336667       0.51543333       0.08923333
    53  C          0.48456667       0.69793333       0.08923333
    54  C          0.30206667       0.78663333       0.08923333
    55  C          0.88003333       0.84876667       0.42256667
    56  C          0.15123333       0.03126667       0.42256667
    57  C          0.96873333       0.11996667       0.42256667
