data_BILNOC01
_symmetry_space_group_name_H-M    'P1'
_symmetry_Int_Tables_number       1
loop_
_symmetry_equiv_pos_site_id
_symmetry_equiv_pos_as_xyz
1 x,y,z
_cell_length_a                   9.780213
_cell_length_b                   9.780213
_cell_length_c                   13.6522
_cell_angle_alpha                90.0
_cell_angle_beta                 90.0
_cell_angle_gamma                120.0
loop_
_atom_site_label
_atom_site_type_symbol
_atom_site_fract_x
_atom_site_fract_y
_atom_site_fract_z
     1  N          0.66666700       0.33333300       0.29940000
     2  N          0.33333367       0.66666633       0.63273333
     3  N          0.00000033      -0.00000033       0.96606667
     4  I          0.47632000       0.45552000       0.48161200
     5  I          0.54448000       0.02080000       0.48161200
     6  I         -0.02080000       0.52368000       0.48161200
     7  I          0.14298667       0.78885333       0.81494533
     8  I          0.21114667       0.35413333       0.81494533
     9  I          0.64586667       0.85701333       0.81494533
    10  I          0.80965333       0.12218667       0.14827867
    11  I          0.87781333       0.68746667       0.14827867
    12  I          0.31253333       0.19034667       0.14827867
    13  N          0.66666700       0.33333300       0.85940000
    14  N          0.33333367       0.66666633       0.19273333
    15  N          0.00000033      -0.00000033       0.52606667
    16  C          0.67740000       0.48340000       0.82630000
    17  C          0.51660000       0.19400000       0.82630000
    18  C          0.80600000       0.32260000       0.82630000
    19  C          0.34406667       0.81673333       0.15963333
    20  C          0.18326667       0.52733333       0.15963333
    21  C          0.47266667       0.65593333       0.15963333
    22  C          0.01073333       0.15006667       0.49296667
    23  C          0.84993333       0.86066667       0.49296667
    24  C          0.13933333      -0.01073333       0.49296667
    25  N          0.66666700       0.33333300       0.67240000
    26  N          0.33333367       0.66666633       0.00573333
    27  N          0.00000033      -0.00000033       0.33906667
    28  C          0.70040000       0.48940000       0.71730000
    29  C          0.51060000       0.21100000       0.71730000
    30  C          0.78900000       0.29960000       0.71730000
    31  C          0.36706667       0.82273333       0.05063333
    32  C          0.17726667       0.54433333       0.05063333
    33  C          0.45566667       0.63293333       0.05063333
    34  C          0.03373333       0.15606667       0.38396667
    35  C          0.84393333       0.87766667       0.38396667
    36  C          0.12233333       0.96626667       0.38396667
    37  C          0.66666700       0.33333300       0.97540000
    38  C          0.33333367       0.66666633       0.30873333
    39  C          0.00000033      -0.00000033       0.64206667
