data_BIRKIW02
_symmetry_space_group_name_H-M    'P1'
_symmetry_Int_Tables_number       1
loop_
_symmetry_equiv_pos_site_id
_symmetry_equiv_pos_as_xyz
1 x,y,z
_cell_length_a                   15.1549
_cell_length_b                   11.5717
_cell_length_c                   8.0275
_cell_angle_alpha                90.0
_cell_angle_beta                 111.6371
_cell_angle_gamma                90.0
loop_
_atom_site_label
_atom_site_type_symbol
_atom_site_fract_x
_atom_site_fract_y
_atom_site_fract_z
     1  S          0.58810800       0.48944800       0.63434140
     2  S          0.58810800       0.51055200       0.13434140
     3  S          0.08810800      -0.01055200       0.63434140
     4  S          0.08810800       0.01055200       0.13434140
     5  C          0.66563000       0.37163000       0.71125000
     6  C          0.66563000       0.62837000       0.21125000
     7  C          0.16563000       0.87163000       0.71125000
     8  C          0.16563000       0.12837000       0.21125000
     9  S          0.62456800       0.26073900       0.81491150
    10  S          0.62456800       0.73926100       0.31491150
    11  S          0.12456800       0.76073900       0.81491150
    12  S          0.12456800       0.23926100       0.31491150
    13  C          0.50963000       0.31573000       0.75926000
    14  C          0.50963000       0.68427000       0.25926000
    15  C          0.00963000       0.81573000       0.75926000
    16  C          0.00963000       0.18427000       0.25926000
    17  S          0.79439800       0.48183100       0.60166150
    18  S          0.79439800       0.51816900       0.10166150
    19  S          0.29439800       0.98183100       0.60166150
    20  S          0.29439800       0.01816900       0.10166150
    21  C          0.43734000       0.25994000       0.79528000
    22  C          0.43734000       0.74006000       0.29528000
    23  C          0.93734000       0.75994000       0.79528000
    24  C          0.93734000       0.24006000       0.29528000
    25  H          0.44830000       0.18880000       0.85330000
    26  H          0.44830000       0.81120000       0.35330000
    27  H          0.94830000       0.68880000       0.85330000
    28  H          0.94830000       0.31120000       0.35330000
    29  S          0.82923800       0.25006900       0.77341150
    30  S          0.82923800       0.74993100       0.27341150
    31  S          0.32923800       0.75006900       0.77341150
    32  S          0.32923800       0.24993100       0.27341150
    33  C          0.34894000       0.31145000       0.74348000
    34  C          0.34894000       0.68855000       0.24348000
    35  C          0.84894000       0.81145000       0.74348000
    36  C          0.84894000       0.18855000       0.24348000
    37  H          0.30010000       0.27360000       0.76530000
    38  H          0.30010000       0.72640000       0.26530000
    39  H          0.80010000       0.77360000       0.76530000
    40  H          0.80010000       0.22640000       0.26530000
    41  C          0.33134000       0.41905000       0.65927000
    42  C          0.33134000       0.58095000       0.15927000
    43  C          0.83134000       0.91905000       0.65927000
    44  C          0.83134000       0.08095000       0.15927000
    45  H          0.27150000       0.45230000       0.62600000
    46  H          0.27150000       0.54770000       0.12600000
    47  H          0.77150000       0.95230000       0.62600000
    48  H          0.77150000       0.04770000       0.12600000
    49  C          0.40264000       0.47565000       0.62548000
    50  C          0.40264000       0.52435000       0.12548000
    51  C          0.90264000       0.97565000       0.62548000
    52  C          0.90264000       0.02435000       0.12548000
    53  H          0.39090000       0.54790000       0.57110000
    54  H          0.39090000       0.45210000       0.07110000
    55  H          0.89090000       0.04790000       0.57110000
    56  H          0.89090000       0.95210000       0.07110000
    57  C          0.49243000       0.42553000       0.67196000
    58  C          0.49243000       0.57447000       0.17196000
    59  C         -0.00757000       0.92553000       0.67196000
    60  C         -0.00757000       0.07447000       0.17196000
    61  C          0.75103000       0.36893000       0.69615000
    62  C          0.75103000       0.63107000       0.19615000
    63  C          0.25103000       0.86893000       0.69615000
    64  C          0.25103000       0.13107000       0.19615000
    65  C          0.90953000       0.42644000       0.66406000
    66  C          0.90953000       0.57356000       0.16406000
    67  C          0.40953000       0.92644000       0.66406000
    68  C          0.40953000       0.07356000       0.16406000
    69  C          0.98214000       0.48525000       0.63608000
    70  C          0.98214000       0.51475000       0.13608000
    71  C          0.48214000       0.98525000       0.63608000
    72  C          0.48214000       0.01475000       0.13608000
    73  H          0.97030000       0.55720000       0.58080000
    74  H          0.97030000       0.44280000       0.08080000
    75  H          0.47030000       0.05720000       0.58080000
    76  H          0.47030000       0.94280000       0.08080000
    77  C          0.07114000       0.43885000       0.68829000
    78  C          0.07114000       0.56115000       0.18829000
    79  C          0.57114000       0.93885000       0.68829000
    80  C          0.57114000       0.06115000       0.18829000
    81  H          0.12020000       0.47900000       0.67090000
    82  H          0.12020000       0.52100000       0.17090000
    83  H          0.62020000       0.97900000       0.67090000
    84  H          0.62020000       0.02100000       0.17090000
    85  C          0.08734000       0.32585000       0.77108000
    86  C          0.08734000       0.67415000       0.27108000
    87  C          0.58734000       0.82585000       0.77108000
    88  C          0.58734000       0.17415000       0.27108000
    89  H          0.14730000       0.29250000       0.80810000
    90  H          0.14730000       0.70750000       0.30810000
    91  H          0.64730000       0.79250000       0.80810000
    92  H          0.64730000       0.20750000       0.30810000
    93  C          0.01375000       0.26795000       0.79479000
    94  C          0.01375000       0.73205000       0.29479000
    95  C          0.51375000       0.76795000       0.79479000
    96  C          0.51375000       0.23205000       0.29479000
    97  H          0.02400000       0.19500000       0.84710000
    98  H          0.02400000       0.80500000       0.34710000
    99  H          0.52400000       0.69500000       0.84710000
   100  H          0.52400000       0.30500000       0.34710000
   101  C          0.92553000       0.31654000       0.74216000
   102  C          0.92553000       0.68346000       0.24216000
   103  C          0.42553000       0.81654000       0.74216000
   104  C          0.42553000       0.18346000       0.24216000
