data_BIRKIW03
_symmetry_space_group_name_H-M    'P1'
_symmetry_Int_Tables_number       1
loop_
_symmetry_equiv_pos_site_id
_symmetry_equiv_pos_as_xyz
1 x,y,z
_cell_length_a                   8.65624
_cell_length_b                   9.41445
_cell_length_c                   9.51444
_cell_angle_alpha                74.042415
_cell_angle_beta                 63.615813
_cell_angle_gamma                65.565314
loop_
_atom_site_label
_atom_site_type_symbol
_atom_site_fract_x
_atom_site_fract_y
_atom_site_fract_z
     1  S          0.43963100       0.53797900       0.28891800
     2  S          0.56036900       0.46202100       0.71108200
     3  S          0.60882100       0.24998800       0.46970900
     4  S          0.39117900       0.75001200       0.53029100
     5  C          0.50953000       0.45583000       0.44973000
     6  C          0.49047000       0.54417000       0.55027000
     7  C          0.47013000       0.35753000       0.24253000
     8  C          0.52987000       0.64247000       0.75747000
     9  C          0.55033000       0.22233000       0.32673000
    10  C          0.44967000       0.77767000       0.67327000
    11  C          0.58304000       0.07433000       0.29544000
    12  C          0.41696000       0.92567000       0.70456000
    13  C          0.53394000       0.06304000       0.17864000
    14  C          0.46606000       0.93696000       0.82136000
    15  C          0.45454000       0.19754000       0.09473000
    16  C          0.54546000       0.80246000       0.90527000
    17  C          0.42034000       0.34604000       0.12633000
    18  C          0.57966000       0.65396000       0.87367000
    19  H          0.63800000       0.98240000       0.35260000
    20  H          0.36200000       0.01760000       0.64740000
    21  H          0.55500000       0.96270000       0.15650000
    22  H          0.44500000       0.03730000       0.84350000
    23  H          0.42310000       0.18830000       0.01470000
    24  H          0.57690000       0.81170000      -0.01470000
    25  H          0.36410000       0.43780000       0.06970000
    26  H          0.63590000       0.56220000       0.93030000
    27  S          0.07081100       0.20979900       0.46015900
    28  S          0.92918900       0.79020100       0.53984100
    29  S          0.88955900       0.02886900       0.75183800
    30  S          0.11044100       0.97113100       0.24816200
    31  C          0.99267000       0.04913000       0.54433000
    32  C          0.00733000       0.95087000       0.45567000
    33  C          0.03983000       0.25583000       0.63903000
    34  C          0.96017000       0.74417000       0.36097000
    35  C          0.95537000       0.17093000       0.77683000
    36  C          0.04463000       0.82907000       0.22317000
    37  C          0.92896000       0.19863000       0.92353000
    38  C          0.07104000       0.80137000       0.07647000
    39  C          0.99076000       0.31094000       0.93064000
    40  C          0.00924000       0.68906000       0.06936000
    41  C          0.07484000       0.39543000       0.79344000
    42  C          0.92516000       0.60457000       0.20656000
    43  C          0.09844000       0.37033000       0.64773000
    44  C          0.90156000       0.62967000       0.35227000
    45  H          0.86980000       0.14200000       0.01740000
    46  H          0.13020000       0.85800000       0.98260000
    47  H          0.97530000       0.32960000       0.02990000
    48  H          0.02470000       0.67040000       0.97010000
    49  H          0.11660000       0.47130000       0.79980000
    50  H          0.88340000       0.52870000       0.20020000
    51  H          0.15360000       0.42990000       0.55440000
    52  H          0.84640000       0.57010000       0.44560000
