data_BIRKIW
_symmetry_space_group_name_H-M    'P1'
_symmetry_Int_Tables_number       1
loop_
_symmetry_equiv_pos_site_id
_symmetry_equiv_pos_as_xyz
1 x,y,z
_cell_length_a                   12.0938
_cell_length_b                   14.58015
_cell_length_c                   3.9482
_cell_angle_alpha                90.0
_cell_angle_beta                 90.0
_cell_angle_gamma                114.276
loop_
_atom_site_label
_atom_site_type_symbol
_atom_site_fract_x
_atom_site_fract_y
_atom_site_fract_z
     1  S          0.03910000       0.15780000       0.61480000
     2  S          0.96090000       0.34220000       0.11480000
     3  S          0.96090000       0.84220000       0.38520000
     4  S          0.03910000       0.65780000       0.88520000
     5  S          0.18660000       0.05890000       0.31110000
     6  S          0.81340000       0.44110000       0.81110000
     7  S          0.81340000       0.94110000       0.68890000
     8  S          0.18660000       0.55890000       0.18890000
     9  C          0.23280000       0.34150000       0.50160000
    10  C          0.76720000       0.15850000       0.00160000
    11  C          0.76720000       0.65850000       0.49840000
    12  C          0.23280000       0.84150000      -0.00160000
    13  C          0.34850000       0.39810000       0.37960000
    14  C          0.65150000       0.10190000       0.87960000
    15  C          0.65150000       0.60190000       0.62040000
    16  C          0.34850000       0.89810000       0.12040000
    17  C          0.41570000       0.35150000       0.23100000
    18  C          0.58430000       0.14850000       0.73100000
    19  C          0.58430000       0.64850000       0.76900000
    20  C          0.41570000       0.85150000       0.26900000
    21  C          0.36920000       0.24830000       0.20650000
    22  C          0.63080000       0.25170000       0.70650000
    23  C          0.63080000       0.75170000       0.79350000
    24  C          0.36920000       0.74830000       0.29350000
    25  C          0.25380000       0.19040000       0.32910000
    26  C          0.74620000       0.30960000       0.82910000
    27  C          0.74620000       0.80960000       0.67090000
    28  C          0.25380000       0.69040000       0.17090000
    29  C          0.18510000       0.23790000       0.47400000
    30  C          0.81490000       0.26210000      -0.02600000
    31  C          0.81490000       0.76210000       0.52600000
    32  C          0.18510000       0.73790000       0.02600000
    33  C          0.04700000       0.04530000       0.48430000
    34  C          0.95300000       0.45470000      -0.01570000
    35  C          0.95300000       0.95470000       0.51570000
    36  C          0.04700000       0.54530000       0.01570000
    37  H          0.18300000       0.37900000       0.61400000
    38  H          0.81700000       0.12100000       0.11400000
    39  H          0.81700000       0.62100000       0.38600000
    40  H          0.18300000       0.87900000       0.88600000
    41  H          0.37700000       0.46000000       0.36700000
    42  H          0.62300000       0.04000000       0.86700000
    43  H          0.62300000       0.54000000       0.63300000
    44  H          0.37700000       0.96000000       0.13300000
    45  H          0.49000000       0.38200000       0.15400000
    46  H          0.51000000       0.11800000       0.65400000
    47  H          0.51000000       0.61800000       0.84600000
    48  H          0.49000000       0.88200000       0.34600000
    49  H          0.41500000       0.21600000       0.09000000
    50  H          0.58500000       0.28400000       0.59000000
    51  H          0.58500000       0.78400000       0.91000000
    52  H          0.41500000       0.71600000       0.41000000
