data_BISMEV01
_symmetry_space_group_name_H-M    'P1'
_symmetry_Int_Tables_number       1
loop_
_symmetry_equiv_pos_site_id
_symmetry_equiv_pos_as_xyz
1 x,y,z
_cell_length_a                   6.5252
_cell_length_b                   6.4402
_cell_length_c                   16.4635
_cell_angle_alpha                90.0
_cell_angle_beta                 92.193
_cell_angle_gamma                90.0
loop_
_atom_site_label
_atom_site_type_symbol
_atom_site_fract_x
_atom_site_fract_y
_atom_site_fract_z
     1  C          0.00800000       0.06560000       0.83350000
     2  C          0.49200000       0.56560000       0.66650000
     3  C         -0.00800000       0.93440000       0.16650000
     4  C          0.50800000       0.43440000       0.33350000
     5  C          0.88810000       0.88900000       0.86900000
     6  C          0.61190000       0.38900000       0.63100000
     7  C          0.11190000       0.11100000       0.13100000
     8  C          0.38810000       0.61100000       0.36900000
     9  C          0.04690000       0.73160000       0.89950000
    10  C          0.45310000       0.23160000       0.60050000
    11  C          0.95310000       0.26840000       0.10050000
    12  C          0.54690000       0.76840000       0.39950000
    13  C          0.25600000       0.83800000       0.89240000
    14  C          0.24400000       0.33800000       0.60760000
    15  C          0.74400000       0.16200000       0.10760000
    16  C          0.75600000       0.66200000       0.39240000
    17  C          0.36790000       0.17540000       0.82850000
    18  C          0.13210000       0.67540000       0.67150000
    19  C          0.63210000       0.82460000       0.17150000
    20  C          0.86790000       0.32460000       0.32850000
    21  C          0.43040000       0.30050000       0.90420000
    22  C          0.06960000       0.80050000       0.59580000
    23  C          0.56960000       0.69950000       0.09580000
    24  C          0.93040000       0.19950000       0.40420000
    25  N          0.21020000       0.02500000       0.84480000
    26  N          0.28980000       0.52500000       0.65520000
    27  N          0.78980000       0.97500000       0.15520000
    28  N          0.71020000       0.47500000       0.34480000
    29  N          0.61420000       0.39210000       0.90290000
    30  N          0.88580000       0.89210000       0.59710000
    31  N          0.38580000       0.60790000       0.09710000
    32  N          0.11420000       0.10790000       0.40290000
    33  O          0.93650000       0.22180000       0.79900000
    34  O          0.56350000       0.72180000       0.70100000
    35  O          0.06350000       0.77820000       0.20100000
    36  O          0.43650000       0.27820000       0.29900000
    37  O          0.31220000       0.31870000       0.96050000
    38  O          0.18780000       0.81870000       0.53950000
    39  O          0.68780000       0.68130000       0.03950000
    40  O          0.81220000       0.18130000       0.46050000
    41  H          0.78830000       0.81830000       0.82300000
    42  H          0.71170000       0.31830000       0.67700000
    43  H          0.21170000       0.18170000       0.17700000
    44  H          0.28830000       0.68170000       0.32300000
    45  H          0.79780000       0.94510000       0.91810000
    46  H          0.70220000       0.44510000       0.58190000
    47  H          0.20220000       0.05490000       0.08190000
    48  H          0.29780000       0.55490000       0.41810000
    49  H          0.03920000       0.59090000       0.86380000
    50  H          0.46080000       0.09090000       0.63620000
    51  H          0.96080000       0.40910000       0.13620000
    52  H          0.53920000       0.90910000       0.36380000
    53  H          0.02240000       0.69500000       0.96240000
    54  H          0.47760000       0.19500000       0.53760000
    55  H          0.97760000       0.30500000       0.03760000
    56  H          0.52240000       0.80500000       0.46240000
    57  H          0.36040000       0.73780000       0.86140000
    58  H          0.13960000       0.23780000       0.63860000
    59  H          0.63960000       0.26220000       0.13860000
    60  H          0.86040000       0.76220000       0.36140000
    61  H          0.32210000       0.87910000       0.95130000
    62  H          0.17790000       0.37910000       0.54870000
    63  H          0.67790000       0.12090000       0.04870000
    64  H          0.82210000       0.62090000       0.45130000
    65  H          0.31120000       0.28070000       0.78180000
    66  H          0.18880000       0.78070000       0.71820000
    67  H          0.68880000       0.71930000       0.21820000
    68  H          0.81120000       0.21930000       0.28180000
    69  H          0.50060000       0.09420000       0.80750000
    70  H         -0.00060000       0.59420000       0.69250000
    71  H          0.49940000       0.90580000       0.19250000
    72  H          0.00060000       0.40580000       0.30750000
    73  H          0.70450000       0.36380000       0.85630000
    74  H          0.79550000       0.86380000       0.64370000
    75  H          0.29550000       0.63620000       0.14370000
    76  H          0.20450000       0.13620000       0.35630000
    77  H          0.65690000       0.48650000       0.94880000
    78  H          0.84310000      -0.01350000       0.55120000
    79  H          0.34310000       0.51350000       0.05120000
    80  H          0.15690000       0.01350000       0.44880000
