data_BISMEV04
_symmetry_space_group_name_H-M    'P1'
_symmetry_Int_Tables_number       1
loop_
_symmetry_equiv_pos_site_id
_symmetry_equiv_pos_as_xyz
1 x,y,z
_cell_length_a                   8.953711
_cell_length_b                   5.45416
_cell_length_c                   13.6104
_cell_angle_alpha                90.0
_cell_angle_beta                 104.932
_cell_angle_gamma                90.0
loop_
_atom_site_label
_atom_site_type_symbol
_atom_site_fract_x
_atom_site_fract_y
_atom_site_fract_z
     1  N          0.70623000       0.17575000       0.93645000
     2  N          0.29377000       0.67575000       0.56355000
     3  N          0.29377000       0.82425000       0.06355000
     4  N          0.70623000       0.32425000       0.43645000
     5  C          0.55734000       0.10957000       0.90116000
     6  C          0.44266000       0.60957000       0.59884000
     7  C          0.44266000       0.89043000       0.09884000
     8  C          0.55734000       0.39043000       0.40116000
     9  C          0.54864000       0.88903000       0.83476000
    10  C          0.45136000       0.38903000       0.66524000
    11  C          0.45136000       0.11097000       0.16524000
    12  C          0.54864000       0.61097000       0.33476000
    13  C          0.70834000       0.87643000       0.81217000
    14  C          0.29166000       0.37643000       0.68783000
    15  C          0.29166000       0.12357000       0.18783000
    16  C          0.70834000       0.62357000       0.31217000
    17  C          0.81224000       0.02297000       0.89726000
    18  C          0.18776000       0.52297000       0.60274000
    19  C          0.18776000      -0.02297000       0.10274000
    20  C          0.81224000       0.47703000       0.39726000
    21  O          0.44763000       0.21334000       0.92364000
    22  O          0.55237000       0.71334000       0.57636000
    23  O          0.55237000       0.78666000       0.07636000
    24  O          0.44763000       0.28666000       0.42364000
    25  C          0.76165000       0.37737000       0.00537000
    26  C          0.23835000       0.87737000       0.49463000
    27  C          0.23835000       0.62263000      -0.00537000
    28  C          0.76165000       0.12263000       0.50537000
    29  C          0.86264000       0.31277000       0.10867000
    30  C          0.13736000       0.81277000       0.39133000
    31  C          0.13736000       0.68723000       0.89133000
    32  C          0.86264000       0.18723000       0.60867000
    33  N          0.83703000       0.10056000       0.14925000
    34  N          0.16297000       0.60056000       0.35075000
    35  N          0.16297000       0.89944000       0.85075000
    36  N          0.83703000       0.39944000       0.64925000
    37  O          0.96353000       0.45765000       0.15174000
    38  O          0.03647000       0.95765000       0.34826000
    39  O          0.03647000       0.54235000       0.84826000
    40  O          0.96353000       0.04235000       0.65174000
    41  H          0.52870000       0.73780000       0.87090000
    42  H          0.47130000       0.23780000       0.62910000
    43  H          0.47130000       0.26220000       0.12910000
    44  H          0.52870000       0.76220000       0.37090000
    45  H          0.46530000       0.90890000       0.77030000
    46  H          0.53470000       0.40890000       0.72970000
    47  H          0.53470000       0.09110000       0.22970000
    48  H          0.46530000       0.59110000       0.27030000
    49  H          0.74490000       0.70290000       0.81340000
    50  H          0.25510000       0.20290000       0.68660000
    51  H          0.25510000       0.29710000       0.18660000
    52  H          0.74490000       0.79710000       0.31340000
    53  H          0.70520000       0.95160000       0.74480000
    54  H          0.29480000       0.45160000       0.75520000
    55  H          0.29480000       0.04840000       0.25520000
    56  H          0.70520000       0.54840000       0.24480000
    57  H          0.87230000       0.91160000       0.95190000
    58  H          0.12770000       0.41160000       0.54810000
    59  H          0.12770000       0.08840000       0.04810000
    60  H          0.87230000       0.58840000       0.45190000
    61  H          0.88550000       0.12670000       0.87110000
    62  H          0.11450000       0.62670000       0.62890000
    63  H          0.11450000       0.87330000       0.12890000
    64  H          0.88550000       0.37330000       0.37110000
    65  H          0.66920000       0.46600000       0.01600000
    66  H          0.33080000       0.96600000       0.48400000
    67  H          0.33080000       0.53400000       0.98400000
    68  H          0.66920000       0.03400000       0.51600000
    69  H          0.82210000       0.48920000       0.97210000
    70  H          0.17790000      -0.01080000       0.52790000
    71  H          0.17790000       0.51080000       0.02790000
    72  H          0.82210000       0.01080000       0.47210000
    73  H          0.89400000       0.05940000       0.21090000
    74  H          0.10600000       0.55940000       0.28910000
    75  H          0.10600000       0.94060000       0.78910000
    76  H          0.89400000       0.44060000       0.71090000
    77  H          0.76380000       0.00140000       0.11700000
    78  H          0.23620000       0.50140000       0.38300000
    79  H          0.23620000      -0.00140000       0.88300000
    80  H          0.76380000       0.49860000       0.61700000
