data_BISMEV07
_symmetry_space_group_name_H-M    'P1'
_symmetry_Int_Tables_number       1
loop_
_symmetry_equiv_pos_site_id
_symmetry_equiv_pos_as_xyz
1 x,y,z
_cell_length_a                   6.4422
_cell_length_b                   6.353011
_cell_length_c                   8.7373
_cell_angle_alpha                81.433
_cell_angle_beta                 112.882
_cell_angle_gamma                91.382
loop_
_atom_site_label
_atom_site_type_symbol
_atom_site_fract_x
_atom_site_fract_y
_atom_site_fract_z
     1  C          0.14891100       0.38021000       0.33941600
     2  C          0.85108900       0.61979000       0.66058400
     3  N          0.93461000       0.42339000       0.31801400
     4  N          0.06539000       0.57661000       0.68198600
     5  O          0.25651100       0.21059000       0.41201500
     6  O          0.74348900       0.78941000       0.58798500
     7  C          0.23391300       0.57021200       0.26120000
     8  C          0.76608700       0.42978800       0.73880000
     9  N          0.47041300       0.07091100       0.20011700
    10  N          0.52958700       0.92908900       0.79988300
    11  O          0.72571200       0.16591100       0.07891900
    12  O          0.27428800       0.83408900       0.92108100
    13  C          0.04451500       0.73541200       0.19020000
    14  C          0.95548500       0.26458800       0.80980000
    15  C          0.84391300       0.62861200       0.21881900
    16  C          0.15608700       0.37138800       0.78118100
    17  C          0.79071300       0.26491200       0.35081500
    18  C          0.20928700       0.73508800       0.64918500
    19  C          0.65791300       0.16511300       0.19751500
    20  C          0.34208700       0.83488700       0.80248500
    21  H          0.36910000       0.62470000       0.34730000
    22  H          0.63090000       0.37530000       0.65270000
    23  H          0.27450000       0.53200000       0.16880000
    24  H          0.72550000       0.46800000       0.83120000
    25  H          0.08770000       0.86130000       0.25110000
    26  H          0.91230000       0.13870000       0.74890000
    27  H          0.00610000       0.78220000       0.06780000
    28  H         -0.00610000       0.21780000       0.93220000
    29  H          0.78440000       0.71430000       0.28110000
    30  H          0.21560000       0.28570000       0.71890000
    31  H          0.72070000       0.61050000       0.10900000
    32  H          0.27930000       0.38950000       0.89100000
    33  H          0.88500000       0.15140000       0.44230000
    34  H          0.11500000       0.84860000       0.55770000
    35  H          0.68340000       0.33250000       0.38810000
    36  H          0.31660000       0.66750000       0.61190000
    37  H          0.43130000       0.07500000       0.28560000
    38  H          0.56870000       0.92500000       0.71440000
    39  H          0.38650000       0.00510000       0.11640000
    40  H          0.61350000      -0.00510000       0.88360000
