data_BISMEV
_symmetry_space_group_name_H-M    'P1'
_symmetry_Int_Tables_number       1
loop_
_symmetry_equiv_pos_site_id
_symmetry_equiv_pos_as_xyz
1 x,y,z
_cell_length_a                   6.4033
_cell_length_b                   6.6184
_cell_length_c                   8.5566
_cell_angle_alpha                79.853
_cell_angle_beta                 102.393
_cell_angle_gamma                91.093
loop_
_atom_site_label
_atom_site_type_symbol
_atom_site_fract_x
_atom_site_fract_y
_atom_site_fract_z
     1  C          0.92760000       0.13180000       0.66860000
     2  C          0.07240000       0.86820000       0.33140000
     3  C          0.83060000       0.93750000       0.74310000
     4  C          0.16940000       0.06250000       0.25690000
     5  C          0.01000000       0.77700000       0.78960000
     6  C         -0.01000000       0.22300000       0.21040000
     7  C          0.21470000       0.89660000       0.78180000
     8  C          0.78530000       0.10340000       0.21820000
     9  C          0.28580000       0.26110000       0.65550000
    10  C          0.71420000       0.73890000       0.34450000
    11  C          0.38220000       0.34910000       0.80850000
    12  C          0.61780000       0.65090000       0.19150000
    13  N          0.13950000       0.09820000       0.68740000
    14  N          0.86050000       0.90180000       0.31260000
    15  N          0.57120000       0.43760000       0.80890000
    16  N          0.42880000       0.56240000       0.19110000
    17  O          0.83070000       0.29340000       0.60060000
    18  O          0.16930000       0.70660000       0.39940000
    19  O          0.28420000       0.34180000       0.91840000
    20  O          0.71580000       0.65820000       0.08160000
    21  H          0.67910000       0.90340000       0.66970000
    22  H          0.32090000       0.09660000       0.33030000
    23  H          0.77910000       0.97160000       0.84790000
    24  H          0.22090000       0.02840000       0.15210000
    25  H         -0.01670000       0.66690000       0.70840000
    26  H          0.01670000       0.33310000       0.29160000
    27  H          0.01440000       0.68000000       0.90590000
    28  H         -0.01440000       0.32000000       0.09410000
    29  H          0.31940000       0.83210000       0.71930000
    30  H          0.68060000       0.16790000       0.28070000
    31  H          0.30780000       0.91850000       0.89870000
    32  H          0.69220000       0.08150000       0.10130000
    33  H          0.20110000       0.38620000       0.56780000
    34  H          0.79890000       0.61380000       0.43220000
    35  H          0.41160000       0.20140000       0.60920000
    36  H          0.58840000       0.79860000       0.39080000
    37  H          0.65040000       0.42100000       0.72280000
    38  H          0.34960000       0.57900000       0.27720000
    39  H          0.63770000       0.51620000       0.89620000
    40  H          0.36230000       0.48380000       0.10380000
