data_BIXGIY02
_symmetry_space_group_name_H-M    'P1'
_symmetry_Int_Tables_number       1
loop_
_symmetry_equiv_pos_site_id
_symmetry_equiv_pos_as_xyz
1 x,y,z
_cell_length_a                   13.8101
_cell_length_b                   3.8581
_cell_length_c                   10.9842
_cell_angle_alpha                94.981
_cell_angle_beta                 94.421
_cell_angle_gamma                95.571
loop_
_atom_site_label
_atom_site_type_symbol
_atom_site_fract_x
_atom_site_fract_y
_atom_site_fract_z
     1  N          0.12560000       0.30080000       0.52410000
     2  N          0.87440000       0.69920000       0.47590000
     3  C          0.21690000       0.44940000       0.54490000
     4  C          0.78310000       0.55060000       0.45510000
     5  C          0.26750000       0.60130000       0.45180000
     6  C          0.73250000       0.39870000       0.54820000
     7  C          0.21820000       0.58710000       0.33620000
     8  C          0.78180000       0.41290000       0.66380000
     9  C          0.12340000       0.43650000       0.31640000
    10  C          0.87660000       0.56350000       0.68360000
    11  C          0.08080000       0.29170000       0.41200000
    12  C          0.91920000       0.70830000       0.58800000
    13  N          0.26090000       0.45560000       0.66100000
    14  N          0.73910000       0.54440000       0.33900000
    15  C          0.22790000       0.33440000       0.76880000
    16  C          0.77210000       0.66560000       0.23120000
    17  C          0.29950000       0.28030000       0.86200000
    18  C          0.70050000       0.71970000       0.13800000
    19  C          0.26580000       0.17120000       0.96910000
    20  C          0.73420000       0.82880000       0.03090000
    21  C          0.16780000       0.10770000       0.98680000
    22  C          0.83220000       0.89230000       0.01320000
    23  C          0.10040000       0.17110000       0.89460000
    24  C          0.89960000       0.82890000       0.10540000
    25  C          0.12900000       0.28290000       0.78510000
    26  C          0.87100000       0.71710000       0.21490000
    27  C          0.40620000       0.35250000       0.84420000
    28  C          0.59380000       0.64750000       0.15580000
    29  C          0.36870000       0.76600000       0.47250000
    30  C          0.63130000       0.23400000       0.52750000
    31  O          0.40200000       0.90660000       0.37770000
    32  O          0.59800000       0.09340000       0.62230000
    33  O          0.41930000       0.77230000       0.57030000
    34  O          0.58070000       0.22770000       0.42970000
    35  Cl         0.34880000       0.09490000       0.08940000
    36  Cl         0.65120000       0.90510000       0.91060000
    37  H          0.25800000       0.70300000       0.27400000
    38  H          0.74200000       0.29700000       0.72600000
    39  H          0.09300000       0.43200000       0.23600000
    40  H          0.90700000       0.56800000       0.76400000
    41  H          0.00900000       0.21000000       0.40700000
    42  H         -0.00900000       0.79000000       0.59300000
    43  H          0.32000000       0.52500000       0.66400000
    44  H          0.68000000       0.47500000       0.33600000
    45  H          0.14400000       0.03500000       0.06000000
    46  H          0.85600000      -0.03500000       0.94000000
    47  H          0.03300000       0.17300000       0.90700000
    48  H          0.96700000       0.82700000       0.09300000
    49  H          0.07800000       0.34100000       0.71800000
    50  H          0.92200000       0.65900000       0.28200000
    51  H          0.43400000       0.59600000       0.85800000
    52  H          0.56600000       0.40400000       0.14200000
    53  H          0.42800000       0.22200000       0.76800000
    54  H          0.57200000       0.77800000       0.23200000
    55  H          0.45100000       0.28700000       0.91900000
    56  H          0.54900000       0.71300000       0.08100000
    57  H          0.46400000       0.03100000       0.41100000
    58  H          0.53600000      -0.03100000       0.58900000
