data_BIXGIY
_symmetry_space_group_name_H-M    'P1'
_symmetry_Int_Tables_number       1
loop_
_symmetry_equiv_pos_site_id
_symmetry_equiv_pos_as_xyz
1 x,y,z
_cell_length_a                   7.6251
_cell_length_b                   14.2011
_cell_length_c                   11.6721
_cell_angle_alpha                90.0
_cell_angle_beta                 101.651
_cell_angle_gamma                90.0
loop_
_atom_site_label
_atom_site_type_symbol
_atom_site_fract_x
_atom_site_fract_y
_atom_site_fract_z
     1  N          0.51100000       0.41960000       0.21010000
     2  N          0.48900000       0.91960000       0.28990000
     3  N          0.48900000       0.58040000       0.78990000
     4  N          0.51100000       0.08040000       0.71010000
     5  C          0.54600000       0.50680000       0.25550000
     6  C          0.45400000       0.00680000       0.24450000
     7  C          0.45400000       0.49320000       0.74450000
     8  C          0.54600000      -0.00680000       0.75550000
     9  C          0.45110000       0.58700000       0.20250000
    10  C          0.54890000       0.08700000       0.29750000
    11  C          0.54890000       0.41300000       0.79750000
    12  C          0.45110000       0.91300000       0.70250000
    13  C          0.32120000       0.57340000       0.10200000
    14  C          0.67880000       0.07340000       0.39800000
    15  C          0.67880000       0.42660000       0.89800000
    16  C          0.32120000       0.92660000       0.60200000
    17  C          0.28880000       0.48470000       0.05540000
    18  C          0.71120000       0.98470000       0.44460000
    19  C          0.71120000       0.51530000       0.94460000
    20  C          0.28880000       0.01530000       0.55540000
    21  C          0.38660000       0.41090000       0.11100000
    22  C          0.61340000       0.91090000       0.38900000
    23  C          0.61340000       0.58910000       0.88900000
    24  C          0.38660000       0.08910000       0.61100000
    25  N          0.67290000       0.51570000       0.35440000
    26  N          0.32710000       0.01570000       0.14560000
    27  N          0.32710000       0.48430000       0.64560000
    28  N          0.67290000       0.98430000       0.85440000
    29  C          0.78060000       0.44030000       0.41270000
    30  C          0.21940000       0.94030000       0.08730000
    31  C          0.21940000       0.55970000       0.58730000
    32  C          0.78060000       0.05970000       0.91270000
    33  C          0.91400000       0.40060000       0.36270000
    34  C          0.08600000       0.90060000       0.13730000
    35  C          0.08600000       0.59940000       0.63730000
    36  C          0.91400000       0.09940000       0.86270000
    37  C          0.01320000       0.32810000       0.42540000
    38  C         -0.01320000       0.82810000       0.07460000
    39  C         -0.01320000       0.67190000       0.57460000
    40  C          0.01320000       0.17190000       0.92540000
    41  C         -0.01240000       0.30010000       0.53210000
    42  C          0.01240000       0.80010000       0.96790000
    43  C          0.01240000       0.69990000       0.46790000
    44  C         -0.01240000       0.19990000       0.03210000
    45  C          0.85920000       0.34260000       0.58000000
    46  C          0.14080000       0.84260000       0.92000000
    47  C          0.14080000       0.65740000       0.42000000
    48  C          0.85920000       0.15740000       0.08000000
    49  C          0.75360000       0.41290000       0.51970000
    50  C          0.24640000       0.91290000       0.98030000
    51  C          0.24640000       0.58710000       0.48030000
    52  C          0.75360000       0.08710000       0.01970000
    53  C          0.94980000       0.43350000       0.24850000
    54  C          0.05020000       0.93350000       0.25150000
    55  C          0.05020000       0.56650000       0.75150000
    56  C          0.94980000       0.06650000       0.74850000
    57  C          0.48600000       0.68140000       0.25310000
    58  C          0.51400000       0.18140000       0.24690000
    59  C          0.51400000       0.31860000       0.74690000
    60  C          0.48600000       0.81860000       0.75310000
    61  O          0.39060000       0.74890000       0.19430000
    62  O          0.60940000       0.24890000       0.30570000
    63  O          0.60940000       0.25110000       0.80570000
    64  O          0.39060000       0.75110000       0.69430000
    65  O          0.59420000       0.69650000       0.34250000
    66  O          0.40580000       0.19650000       0.15750000
    67  O          0.40580000       0.30350000       0.65750000
    68  O          0.59420000       0.80350000       0.84250000
    69  Cl         0.17360000       0.27040000       0.36650000
    70  Cl         0.82640000       0.77040000       0.13350000
    71  Cl         0.82640000       0.72960000       0.63350000
    72  Cl         0.17360000       0.22960000       0.86650000
    73  H          0.25800000       0.63100000       0.06900000
    74  H          0.74200000       0.13100000       0.43100000
    75  H          0.74200000       0.36900000       0.93100000
    76  H          0.25800000       0.86900000       0.56900000
    77  H          0.20200000       0.47200000      -0.01200000
    78  H          0.79800000       0.97200000       0.51200000
    79  H          0.79800000       0.52800000       0.01200000
    80  H          0.20200000       0.02800000       0.48800000
    81  H          0.37000000       0.34500000       0.07800000
    82  H          0.63000000       0.84500000       0.42200000
    83  H          0.63000000       0.65500000       0.92200000
    84  H          0.37000000       0.15500000       0.57800000
    85  H          0.67900000       0.57700000       0.38900000
    86  H          0.32100000       0.07700000       0.11100000
    87  H          0.32100000       0.42300000       0.61100000
    88  H          0.67900000       0.92300000       0.88900000
    89  H          0.04700000       0.24800000       0.57800000
    90  H          0.95300000       0.74800000       0.92200000
    91  H          0.95300000       0.75200000       0.42200000
    92  H          0.04700000       0.25200000       0.07800000
    93  H          0.84500000       0.32300000       0.65500000
    94  H          0.15500000       0.82300000       0.84500000
    95  H          0.15500000       0.67700000       0.34500000
    96  H          0.84500000       0.17700000       0.15500000
    97  H          0.65400000       0.44500000       0.55400000
    98  H          0.34600000       0.94500000       0.94600000
    99  H          0.34600000       0.55500000       0.44600000
   100  H          0.65400000       0.05500000       0.05400000
   101  H          0.88000000       0.39100000       0.18000000
   102  H          0.12000000       0.89100000       0.32000000
   103  H          0.12000000       0.60900000       0.82000000
   104  H          0.88000000       0.10900000       0.68000000
   105  H          0.06100000       0.42900000       0.24300000
   106  H          0.93900000       0.92900000       0.25700000
   107  H          0.93900000       0.57100000       0.75700000
   108  H          0.06100000       0.07100000       0.74300000
   109  H          0.91300000       0.50000000       0.23200000
   110  H          0.08700000       0.00000000       0.26800000
   111  H          0.08700000       0.50000000       0.76800000
   112  H          0.91300000      -0.00000000       0.73200000
   113  H          0.42700000       0.81900000       0.23200000
   114  H          0.57300000       0.31900000       0.26800000
   115  H          0.57300000       0.18100000       0.76800000
   116  H          0.42700000       0.68100000       0.73200000
