data_BIXGIY05
_symmetry_space_group_name_H-M    'P1'
_symmetry_Int_Tables_number       1
loop_
_symmetry_equiv_pos_site_id
_symmetry_equiv_pos_as_xyz
1 x,y,z
_cell_length_a                   7.10742
_cell_length_b                   7.60262
_cell_length_c                   10.78853
_cell_angle_alpha                78.56651
_cell_angle_beta                 80.191511
_cell_angle_gamma                87.942611
loop_
_atom_site_label
_atom_site_type_symbol
_atom_site_fract_x
_atom_site_fract_y
_atom_site_fract_z
     1  C          0.27733000       0.51363000       0.40680190
     2  C          0.72267000       0.48637000       0.59319810
     3  C          0.23133000       0.68863000       0.34012190
     4  C          0.76867000       0.31137000       0.65987810
     5  C          0.26813000       0.72203000       0.20711190
     6  C          0.73187000       0.27797000       0.79288810
     7  H          0.24261500       0.83737300       0.16016900
     8  H          0.75738500       0.16262700       0.83983100
     9  C          0.34133000       0.58903000       0.14292000
    10  C          0.65867000       0.41097000       0.85708000
    11  H          0.36735200       0.61045900       0.05183200
    12  H          0.63264800       0.38954100       0.94816800
    13  C          0.37563000       0.42333000       0.21505190
    14  C          0.62437000       0.57667000       0.78494810
    15  H          0.42195000       0.33028200       0.17057500
    16  H          0.57805000       0.66971800       0.82942500
    17  C          0.14453000       0.82943000       0.40781190
    18  C          0.85547000       0.17057000       0.59218810
    19  C          0.27383000       0.32163000       0.62827180
    20  C          0.72617000       0.67837000       0.37172820
    21  C          0.22023000       0.33753000       0.75787190
    22  C          0.77977000       0.66247000       0.24212810
    23  C          0.23793000       0.18413000       0.85012000
    24  C          0.76207000       0.81587000       0.14988000
    25  C          0.30823000       0.02293000       0.81982000
    26  C          0.69177000       0.97707000       0.18018000
    27  H          0.31975400       0.92138400       0.88551100
    28  H          0.68024600       0.07861600       0.11448900
    29  C          0.36133000       0.01273000       0.69222000
    30  C          0.63867000      -0.01273000       0.30778000
    31  H          0.41014300       0.90298100       0.67011500
    32  H          0.58985700       0.09701900       0.32988500
    33  C          0.34443000       0.15993000       0.59592000
    34  C          0.65557000       0.84007000       0.40408000
    35  H          0.38047900       0.15095700       0.50839500
    36  H          0.61952100       0.84904300       0.49160500
    37  C          0.14833000       0.51343000       0.79342000
    38  C          0.85167000       0.48657000       0.20658000
    39  H          0.12544600       0.50035400       0.88697100
    40  H          0.87455400       0.49964600       0.11302900
    41  H          0.02893500       0.54681400       0.76070700
    42  H          0.97106500       0.45318600       0.23929300
    43  H          0.24402800       0.60695500       0.75566200
    44  H          0.75597200       0.39304500       0.24433800
    45  N          0.34822000       0.38482000       0.34320160
    46  N          0.65178000       0.61518000       0.65679840
    47  N          0.24712000       0.47792000       0.53788160
    48  N          0.75288000       0.52208000       0.46211840
    49  H          0.20268700       0.56987900       0.57235100
    50  H          0.79731300       0.43012100       0.42764900
    51  O          0.09522000       0.80509180       0.52556130
    52  O          0.90478000       0.19490820       0.47443870
    53  O          0.11902000       0.98455180       0.33274140
    54  O          0.88098000       0.01544820       0.66725860
    55  H          0.05630000       0.05330000       0.38120000
    56  H          0.94370000       0.94670000       0.61880000
    57  Cl         0.17004800       0.18849700       0.01300500
    58  Cl         0.82995200       0.81150300      -0.01300500
