data_BIXGIY04
_symmetry_space_group_name_H-M    'P1'
_symmetry_Int_Tables_number       1
loop_
_symmetry_equiv_pos_site_id
_symmetry_equiv_pos_as_xyz
1 x,y,z
_cell_length_a                   23.5976
_cell_length_b                   4.0421
_cell_length_c                   12.1273
_cell_angle_alpha                90.0
_cell_angle_beta                 90.0
_cell_angle_gamma                90.0
loop_
_atom_site_label
_atom_site_type_symbol
_atom_site_fract_x
_atom_site_fract_y
_atom_site_fract_z
     1  N          0.24830000       0.10720000       0.60640000
     2  N          0.25170000       0.10720000       0.10640000
     3  N          0.74830000       0.89280000       0.60640000
     4  N          0.75170000       0.89280000       0.10640000
     5  C          0.27280000       0.93660000       0.51940000
     6  C          0.22720000       0.93660000       0.01940000
     7  C          0.77280000       0.06340000       0.51940000
     8  C          0.72720000       0.06340000       0.01940000
     9  C          0.23400000       0.78480000       0.44370000
    10  C          0.26600000       0.78480000       0.94370000
    11  C          0.73400000       0.21520000       0.44370000
    12  C          0.76600000       0.21520000       0.94370000
    13  C          0.17690000       0.80450000       0.46290000
    14  C          0.32310000       0.80450000       0.96290000
    15  C          0.67690000       0.19550000       0.46290000
    16  C          0.82310000       0.19550000       0.96290000
    17  C          0.15560000      -0.02370000       0.55370000
    18  C          0.34440000      -0.02370000       0.05370000
    19  C          0.65560000       0.02370000       0.55370000
    20  C          0.84440000       0.02370000       0.05370000
    21  C          0.19270000       0.12680000       0.62080000
    22  C          0.30730000       0.12680000       0.12080000
    23  C          0.69270000       0.87320000       0.62080000
    24  C          0.80730000       0.87320000       0.12080000
    25  N          0.32770000       0.91830000       0.50620000
    26  N          0.17230000       0.91830000       0.00620000
    27  N          0.82770000       0.08170000       0.50620000
    28  N          0.67230000       0.08170000       0.00620000
    29  C          0.37290000       0.05100000       0.56670000
    30  C          0.12710000       0.05100000       0.06670000
    31  C          0.87290000       0.94900000       0.56670000
    32  C          0.62710000       0.94900000       0.06670000
    33  C          0.41960000       0.17580000       0.50810000
    34  C          0.08040000       0.17580000       0.00810000
    35  C          0.91960000       0.82420000       0.50810000
    36  C          0.58040000       0.82420000       0.00810000
    37  C          0.46400000       0.30500000       0.56560000
    38  C          0.03600000       0.30500000       0.06560000
    39  C          0.96400000       0.69500000       0.56560000
    40  C          0.53600000       0.69500000       0.06560000
    41  C          0.46500000       0.29980000       0.67970000
    42  C          0.03500000       0.29980000       0.17970000
    43  C          0.96500000       0.70020000       0.67970000
    44  C          0.53500000       0.70020000       0.17970000
    45  C          0.41790000       0.16900000       0.73350000
    46  C          0.08210000       0.16900000       0.23350000
    47  C          0.91790000       0.83100000       0.73350000
    48  C          0.58210000       0.83100000       0.23350000
    49  C          0.37280000       0.04570000       0.68280000
    50  C          0.12720000       0.04570000       0.18280000
    51  C          0.87280000       0.95430000       0.68280000
    52  C          0.62720000       0.95430000       0.18280000
    53  C          0.42100000       0.16940000       0.38290000
    54  C          0.07900000       0.16940000       0.88290000
    55  C          0.92100000       0.83060000       0.38290000
    56  C          0.57900000       0.83060000       0.88290000
    57  C          0.25560000       0.60400000       0.33960000
    58  C          0.24440000       0.60400000       0.83960000
    59  C          0.75560000       0.39600000       0.33960000
    60  C          0.74440000       0.39600000       0.83960000
    61  O          0.21800000       0.49210000       0.28180000
    62  O          0.28200000       0.49210000       0.78180000
    63  O          0.71800000       0.50790000       0.28180000
    64  O          0.78200000       0.50790000       0.78180000
    65  O          0.30740000       0.59770000       0.32670000
    66  O          0.19260000       0.59770000       0.82670000
    67  O          0.80740000       0.40230000       0.32670000
    68  O          0.69260000       0.40230000       0.82670000
    69  Cl         0.52260000       0.46990000       0.50060000
    70  Cl         0.97740000       0.46990000       0.00060000
    71  Cl         0.02260000       0.53010000       0.50060000
    72  Cl         0.47740000       0.53010000       0.00060000
    73  H          0.28000000       0.28800000       0.64800000
    74  H          0.22000000       0.28800000       0.14800000
    75  H          0.78000000       0.71200000       0.64800000
    76  H          0.72000000       0.71200000       0.14800000
    77  H          0.15500000       0.71000000       0.40000000
    78  H          0.34500000       0.71000000       0.90000000
    79  H          0.65500000       0.29000000       0.40000000
    80  H          0.84500000       0.29000000       0.90000000
    81  H          0.11400000       0.02000000       0.57000000
    82  H          0.38600000       0.02000000       0.07000000
    83  H          0.61400000      -0.02000000       0.57000000
    84  H          0.88600000      -0.02000000       0.07000000
    85  H          0.17300000       0.22000000       0.69200000
    86  H          0.32700000       0.22000000       0.19200000
    87  H          0.67300000       0.78000000       0.69200000
    88  H          0.82700000       0.78000000       0.19200000
    89  H          0.33800000       0.80000000       0.44000000
    90  H          0.16200000       0.80000000       0.94000000
    91  H          0.83800000       0.20000000       0.44000000
    92  H          0.66200000       0.20000000       0.94000000
    93  H          0.50000000       0.38000000       0.72000000
    94  H          0.00000000       0.38000000       0.22000000
    95  H          0.00000000       0.62000000       0.72000000
    96  H          0.50000000       0.62000000       0.22000000
    97  H          0.41900000       0.17000000       0.81000000
    98  H          0.08100000       0.17000000       0.31000000
    99  H          0.91900000       0.83000000       0.81000000
   100  H          0.58100000       0.83000000       0.31000000
   101  H          0.34100000       0.93000000       0.72000000
   102  H          0.15900000       0.93000000       0.22000000
   103  H          0.84100000       0.07000000       0.72000000
   104  H          0.65900000       0.07000000       0.22000000
   105  H          0.45500000      -0.00000000       0.35000000
   106  H          0.04500000      -0.00000000       0.85000000
   107  H          0.95500000       0.00000000       0.35000000
   108  H          0.54500000      -0.00000000       0.85000000
   109  H          0.45500000       0.32000000       0.35000000
   110  H          0.04500000       0.32000000       0.85000000
   111  H          0.95500000       0.68000000       0.35000000
   112  H          0.54500000       0.68000000       0.85000000
   113  H          0.39200000       0.13000000       0.34000000
   114  H          0.10800000       0.13000000       0.84000000
   115  H          0.89200000       0.87000000       0.34000000
   116  H          0.60800000       0.87000000       0.84000000
