data_BIXLUR02
_symmetry_space_group_name_H-M    'P1'
_symmetry_Int_Tables_number       1
loop_
_symmetry_equiv_pos_site_id
_symmetry_equiv_pos_as_xyz
1 x,y,z
_cell_length_a                   7.3322
_cell_length_b                   8.0632
_cell_length_c                   9.1073
_cell_angle_alpha                65.9233
_cell_angle_beta                 75.2004
_cell_angle_gamma                64.1463
loop_
_atom_site_label
_atom_site_type_symbol
_atom_site_fract_x
_atom_site_fract_y
_atom_site_fract_z
     1  O          0.29857180       0.97281840       0.74319130
     2  O          0.70142820       0.02718160       0.25680870
     3  O          0.25393190       0.01228160       0.49334130
     4  O          0.74606810       0.98771840       0.50665870
     5  H          0.24640000       0.88060000       0.54330000
     6  H          0.75360000       0.11940000       0.45670000
     7  C          0.27602000       0.07022000       0.60096180
     8  C          0.72398000       0.92978000       0.39903820
     9  C          0.27272000       0.27602000       0.52630180
    10  C          0.72728000       0.72398000       0.47369820
    11  H          0.29302700       0.32725600       0.41182700
    12  H          0.70697300       0.67274400       0.58817300
    13  C          0.24392000       0.39202000       0.60693170
    14  C          0.75608000       0.60798000       0.39306830
    15  C          0.24622000       0.59912000       0.52377180
    16  C          0.75378000       0.40088000       0.47622820
    17  O          0.25622180       0.66617160       0.37417130
    18  O          0.74377820       0.33382840       0.62582870
    19  O          0.23804180       0.67967160       0.62059130
    20  O          0.76195820       0.32032840       0.37940870
    21  N          0.20792000       0.32795180       0.78289150
    22  N          0.79208000       0.67204820       0.21710850
    23  C          0.35552000       0.28902000       0.86946190
    24  C          0.64448000       0.71098000       0.13053810
    25  H          0.47876500       0.30606700       0.81591100
    26  H          0.52123500       0.69393300       0.18408900
    27  C          0.32603000       0.22432000       0.03622000
    28  C          0.67397000       0.77568000       0.96378000
    29  H          0.42939200       0.19534000       0.09800500
    30  H          0.57060800       0.80466000       0.90199500
    31  C          0.14333000       0.20182000       0.11302000
    32  C          0.85667000       0.79818000       0.88698000
    33  H          0.12161200       0.15689700       0.22759200
    34  H          0.87838800       0.84310300       0.77240800
    35  C         -0.00663000       0.24562000       0.02082000
    36  C          0.00663000       0.75438000       0.97918000
    37  H          0.86746100       0.23313100       0.07186800
    38  H          0.13253900       0.76686900       0.92813200
    39  C          0.02872000       0.30742000       0.85431190
    40  C          0.97128000       0.69258000       0.14568810
    41  H          0.92814700       0.33529700       0.79024200
    42  H          0.07185300       0.66470300       0.20975800
