data_BIXLUR
_symmetry_space_group_name_H-M    'P1'
_symmetry_Int_Tables_number       1
loop_
_symmetry_equiv_pos_site_id
_symmetry_equiv_pos_as_xyz
1 x,y,z
_cell_length_a                   7.9684
_cell_length_b                   8.3685
_cell_length_c                   12.5707
_cell_angle_alpha                90.0
_cell_angle_beta                 90.0
_cell_angle_gamma                90.0
loop_
_atom_site_label
_atom_site_type_symbol
_atom_site_fract_x
_atom_site_fract_y
_atom_site_fract_z
     1  O          0.54385190       0.14738180       0.36312130
     2  O          0.95614810       0.85261820       0.86312130
     3  O          0.04385190       0.35261820       0.63687870
     4  O          0.45614810       0.64738180       0.13687870
     5  C          0.55513000       0.29143000       0.37954160
     6  C          0.94487000       0.70857000       0.87954160
     7  C          0.05513000       0.20857000       0.62045840
     8  C          0.44487000       0.79143000       0.12045840
     9  O          0.43652000       0.38983170       0.39371130
    10  O          0.06348000       0.61016830       0.89371130
    11  O          0.93652000       0.11016830       0.60628870
    12  O          0.56348000       0.88983170       0.10628870
    13  C          0.72903000       0.36592000       0.38106160
    14  C          0.77097000       0.63408000       0.88106160
    15  C          0.22903000       0.13408000       0.61893840
    16  C          0.27097000       0.86592000       0.11893840
    17  O          0.06162000       0.49985180       0.32158140
    18  O          0.43838000       0.50014820       0.82158140
    19  O          0.56162000       0.00014820       0.67841860
    20  O          0.93838000      -0.00014820       0.17841860
    21  C          0.86743000       0.28953000       0.35509170
    22  C          0.63257000       0.71047000       0.85509170
    23  C          0.36743000       0.21047000       0.64490830
    24  C          0.13257000       0.78953000       0.14490830
    25  H          0.85820000       0.17980000       0.33670000
    26  H          0.64180000       0.82020000       0.83670000
    27  H          0.35820000       0.32020000       0.66330000
    28  H          0.14180000       0.67980000       0.16330000
    29  O          0.15449190       0.26654170       0.38554120
    30  O          0.34550810       0.73345830       0.88554120
    31  O          0.65449190       0.23345830       0.61445880
    32  O          0.84550810       0.76654170       0.11445880
    33  C          0.03933000       0.36403000       0.35254170
    34  C          0.46067000       0.63597000       0.85254170
    35  C          0.53933000       0.13597000       0.64745830
    36  C          0.96067000       0.86403000       0.14745830
    37  H          0.26640000       0.31940000       0.38330000
    38  H          0.23360000       0.68060000       0.88330000
    39  H          0.76640000       0.18060000       0.61670000
    40  H          0.73360000       0.81940000       0.11670000
    41  N          0.73412000       0.53417190       0.41120140
    42  N          0.76588000       0.46582810       0.91120140
    43  N          0.23412000       0.96582810       0.58879860
    44  N          0.26588000       0.03417190       0.08879860
    45  C          0.69373000       0.64403000       0.33779180
    46  C          0.80627000       0.35597000       0.83779180
    47  C          0.19373000       0.85597000       0.66220820
    48  C          0.30627000       0.14403000       0.16220820
    49  H          0.66360000       0.61150000       0.26790000
    50  H          0.83640000       0.38850000       0.76790000
    51  H          0.16360000       0.88850000       0.73210000
    52  H          0.33640000       0.11150000       0.23210000
    53  C          0.69583000       0.80383000       0.36371190
    54  C          0.80417000       0.19617000       0.86371190
    55  C          0.19583000       0.69617000       0.63628810
    56  C          0.30417000       0.30383000       0.13628810
    57  H          0.66910000       0.88220000       0.31180000
    58  H          0.83090000       0.11780000       0.81180000
    59  H          0.16910000       0.61780000       0.68820000
    60  H          0.33090000       0.38220000       0.18820000
    61  C          0.73693000       0.84872000       0.46585190
    62  C          0.76307000       0.15128000       0.96585190
    63  C          0.23693000       0.65128000       0.53414810
    64  C          0.26307000       0.34872000       0.03414810
    65  H          0.73860000       0.95850000       0.48490000
    66  H          0.76140000       0.04150000       0.98490000
    67  H          0.23860000       0.54150000       0.51510000
    68  H          0.26140000       0.45850000       0.01510000
    69  C          0.77573000       0.73373000       0.54028190
    70  C          0.72427000       0.26627000       0.04028190
    71  C          0.27573000       0.76627000       0.45971810
    72  C          0.22427000       0.23373000       0.95971810
    73  H          0.80270000       0.76360000       0.61120000
    74  H          0.69730000       0.23640000       0.11120000
    75  H          0.30270000       0.73640000       0.38880000
    76  H          0.19730000       0.26360000       0.88880000
    77  C          0.77503000       0.57563000       0.51122180
    78  C          0.72497000       0.42437000       0.01122180
    79  C          0.27503000       0.92437000       0.48877820
    80  C          0.22497000       0.07563000       0.98877820
    81  H          0.80340000       0.49560000       0.56170000
    82  H          0.69660000       0.50440000       0.06170000
    83  H          0.30340000       0.00440000       0.43830000
    84  H          0.19660000      -0.00440000       0.93830000
