data_BIXLUR03
_symmetry_space_group_name_H-M    'P1'
_symmetry_Int_Tables_number       1
loop_
_symmetry_equiv_pos_site_id
_symmetry_equiv_pos_as_xyz
1 x,y,z
_cell_length_a                   10.23977
_cell_length_b                   7.99835
_cell_length_c                   10.65917
_cell_angle_alpha                90.0
_cell_angle_beta                 107.2232
_cell_angle_gamma                90.0
loop_
_atom_site_label
_atom_site_type_symbol
_atom_site_fract_x
_atom_site_fract_y
_atom_site_fract_z
     1  O          0.71606100       0.50941120       0.47720100
     2  O          0.78393900       0.00941120       0.02279900
     3  O          0.28393900       0.49058880       0.52279900
     4  O          0.21606100      -0.00941120       0.97720100
     5  O          0.62607100       0.60008120       0.63309900
     6  O          0.87392900       0.10008120       0.86690100
     7  O          0.37392900       0.39991880       0.36690100
     8  O          0.12607100       0.89991880       0.13309900
     9  H          0.65430000       0.71930000       0.60830000
    10  H          0.84570000       0.21930000       0.89170000
    11  H          0.34570000       0.28070000       0.39170000
    12  H          0.15430000       0.78070000       0.10830000
    13  C          0.66135130       0.48487160       0.56306130
    14  C          0.83864870      -0.01512840       0.93693870
    15  C          0.33864870       0.51512840       0.43693870
    16  C          0.16135130       0.01512840       0.06306130
    17  C          0.62436130       0.31347160       0.59882120
    18  C          0.87563870       0.81347160       0.90117880
    19  C          0.37563870       0.68652840       0.40117880
    20  C          0.12436130       0.18652840       0.09882120
    21  H          0.55282900       0.30612000       0.63851400
    22  H          0.94717100       0.80612000       0.86148600
    23  H          0.44717100       0.69388000       0.36148600
    24  H          0.05282900       0.19388000       0.13851400
    25  C          0.68249120       0.17171160       0.57999120
    26  C          0.81750880       0.67171160       0.92000880
    27  C          0.31750880       0.82828840       0.42000880
    28  C          0.18249120       0.32828840       0.07999120
    29  C          0.64060130       0.00193160       0.61819120
    30  C          0.85939870       0.50193160       0.88180880
    31  C          0.35939870      -0.00193160       0.38180880
    32  C          0.14060130       0.49806840       0.11819120
    33  O          0.55261100      -0.00243120       0.67606900
    34  O          0.94738900       0.49756880       0.82393100
    35  O          0.44738900       0.00243120       0.32393100
    36  O          0.05261100       0.50243120       0.17606900
    37  O          0.70278100       0.87945880       0.58575100
    38  O          0.79721900       0.37945880       0.91424900
    39  O          0.29721900       0.12054120       0.41424900
    40  O          0.20278100       0.62054120       0.08575100
    41  N          0.79233110       0.17382130       0.51949110
    42  N          0.70766890       0.67382130       0.98050890
    43  N          0.20766890       0.82617870       0.48050890
    44  N          0.29233110       0.32617870       0.01949110
    45  C          0.76660140       0.11223180       0.39638130
    46  C          0.73339860       0.61223180       0.10361870
    47  C          0.23339860       0.88776820       0.60361870
    48  C          0.26660140       0.38776820       0.89638130
    49  H          0.68153000       0.05996200       0.35451700
    50  H          0.81847000       0.55996200       0.14548300
    51  H          0.31847000       0.94003800       0.64548300
    52  H          0.18153000       0.44003800       0.85451700
    53  C          0.86491150       0.12592000       0.33212140
    54  C          0.63508850       0.62592000       0.16787860
    55  C          0.13508850       0.87408000       0.66787860
    56  C          0.36491150       0.37408000       0.83212140
    57  H          0.84815300       0.08345100       0.24554800
    58  H          0.65184700       0.58345100       0.25445200
    59  H          0.15184700       0.91654900       0.75445200
    60  H          0.34815300       0.41654900       0.74554800
    61  C         -0.01127850       0.20252000       0.39539140
    62  C          0.51127850       0.70252000       0.10460860
    63  C          0.01127850       0.79748000       0.60460860
    64  C          0.48872150       0.29748000       0.89539140
    65  H          0.05651500       0.21456400       0.35149000
    66  H          0.44348500       0.71456400       0.14851000
    67  H          0.94348500       0.78543600       0.64851000
    68  H          0.55651500       0.28543600       0.85149000
    69  C          0.01321140       0.26126190       0.52235140
    70  C          0.48678860       0.76126190       0.97764860
    71  C         -0.01321140       0.73873810       0.47764860
    72  C          0.51321140       0.23873810       0.02235140
    73  H          0.09845900       0.31138500       0.56684900
    74  H          0.40154100       0.81138500       0.93315100
    75  H          0.90154100       0.68861500       0.43315100
    76  H          0.59845900       0.18861500       0.06684900
    77  C          0.91258130       0.24627170       0.58360130
    78  C          0.58741870       0.74627170       0.91639870
    79  C          0.08741870       0.75372830       0.41639870
    80  C          0.41258130       0.25372830       0.08360130
    81  H          0.92783700       0.28676100       0.67055200
    82  H          0.57216300       0.78676100       0.82944800
    83  H          0.07216300       0.71323900       0.32944800
    84  H          0.42783700       0.21323900       0.17055200
