data_BIYSEH21
_symmetry_space_group_name_H-M    'P1'
_symmetry_Int_Tables_number       1
loop_
_symmetry_equiv_pos_site_id
_symmetry_equiv_pos_as_xyz
1 x,y,z
_cell_length_a                   13.0883
_cell_length_b                   7.522015
_cell_length_c                   20.8374
_cell_angle_alpha                84.643
_cell_angle_beta                 75.443
_cell_angle_gamma                84.283
loop_
_atom_site_label
_atom_site_type_symbol
_atom_site_fract_x
_atom_site_fract_y
_atom_site_fract_z
     1  S          0.53211000       0.74011700       0.05556000
     2  O          0.88520000       0.43940000       0.98288600
     3  N          0.82220000       0.10830000       0.15751100
     4  C          0.83371800       0.17130000       0.09369000
     5  O          0.84320000       0.72250000       0.91888600
     6  H          0.88316000       0.61400000       0.92440000
     7  N          0.78030000       0.30750000       0.07801900
     8  H          0.71692800       0.31596000       0.10288400
     9  C          0.87911400       0.95570000       0.17121300
    10  H          0.88110000       0.92670600       0.21523100
    11  O          0.51320000       0.62830000       0.01011200
    12  N          0.64041900       0.64230000       0.07831000
    13  C          0.93501900       0.83960000       0.12401100
    14  H          0.96673900       0.73030900       0.13656900
    15  O          0.45230000       0.79850000       0.11381600
    16  C          0.94220000       0.89160000       0.05731300
    17  H          0.97888600       0.82195400       0.02329100
    18  C          0.89020000       0.05830000       0.04501500
    19  H          0.89286500       0.09699500       0.00088300
    20  C          0.80111700       0.45130000       0.02761100
    21  C          0.72820000       0.61330000       0.02361200
    22  C          0.75571700       0.73930000       0.97188900
    23  C          0.65820000       0.73130000       0.13551100
    24  H          0.72859600       0.76716700       0.12488400
    25  H          0.64716500       0.64838200       0.17418500
    26  H          0.60825400       0.83415100       0.14418400
    27  C          0.58621600       0.93530000       0.00391100
    28  C          0.68891600       0.90530000       0.96528800
    29  C          0.73611600       0.04230000       0.92148800
    30  H          0.80473300       0.02149300       0.89569000
    31  C          0.68120000       0.20830000       0.91638700
    32  H          0.71229100       0.29878300       0.88708900
    33  C          0.57820000       0.23830000       0.95498600
    34  H          0.54102300       0.34870600       0.95153800
    35  C          0.53091500       0.10130000      -0.00121300
    36  H          0.46219700       0.12133700       0.02458700
    37  S          0.69381200       0.26420000       0.71077000
    38  O          0.35420000       0.60040000       0.79591300
    39  N          0.45581700       0.66530000       0.69221000
    40  H          0.51156700       0.63417100       0.66234800
    41  O          0.39271800       0.28640000       0.85501100
    42  H          0.36590000       0.39811000       0.84640000
    43  N          0.58471800       0.34730000       0.68791000
    44  O          0.76920000       0.21030000       0.65351200
    45  N          0.40641800       0.88230000       0.61499000
    46  O          0.72751900       0.39430000       0.74771200
    47  C          0.39161700       0.83830000       0.68088000
    48  C          0.32811600       0.94130000       0.73011100
    49  H          0.31915900       0.90846800       0.77522300
    50  C          0.35301900       0.03330000       0.59561300
    51  H          0.35886400       0.05816200       0.55034600
    52  C          0.29020000       0.15230000       0.63911100
    53  H          0.25794900       0.25929000       0.62479900
    54  C          0.27920000       0.09740000       0.70611400
    55  H          0.23517000       0.16980800       0.73716800
    56  C          0.42820000       0.56250000       0.74691500
    57  C          0.49530000       0.37550000       0.74411800
    58  C          0.47720000       0.23830000       0.80181400
    59  C          0.50661200       0.93080000       0.84249000
    60  H          0.43756800       0.93724800       0.86860500
    61  C          0.54371300       0.07720000       0.80011000
    62  C          0.64681400       0.06820000       0.76099000
    63  C          0.71281200       0.91170000       0.76401000
    64  H          0.78185600       0.90601600       0.73771600
    65  C          0.67571400       0.76580000       0.80621100
    66  H          0.71989700       0.66198000       0.80828300
    67  C          0.57261400       0.77480000       0.84549000
    68  H          0.54775400       0.67759300       0.87372800
    69  C          0.55140000       0.27460000       0.63381800
    70  H          0.61070400       0.26402800       0.59588000
    71  H          0.49592500       0.35326800       0.62177400
    72  H          0.52612800       0.15818300       0.64829400
    73  S          0.26871200       0.83320000       0.45718000
    74  N          0.57130000       0.75240000       0.49251500
    75  H          0.51103200       0.76348900       0.52111100
    76  O          0.65430000       0.72450000       0.37451600
    77  N          0.37351800       0.71530000       0.46851100
    78  O          0.53430000       0.70750000       0.29551600
    79  H          0.59060000       0.73300000       0.30920000
    80  O          0.17820000       0.74140000       0.50691500
    81  O          0.28420000      -0.00960000       0.44571300
    82  N          0.65761400       0.70930000       0.57648000
    83  C          0.66441500       0.75730000       0.51148000
    84  C          0.84651900       0.83130000       0.50151100
    85  H          0.91196300       0.86398300       0.47636200
    86  C          0.82420000       0.79240000       0.56961100
    87  H          0.87465800       0.81728800       0.59103600
    88  C          0.73321800       0.72040000       0.60931400
    89  H          0.72541500       0.68274000       0.65401700
    90  C          0.76131400       0.81430000       0.47461100
    91  H          0.76942700       0.84360700       0.42932300
    92  C          0.57520000       0.72840000       0.42591400
    93  C          0.46520000       0.71640000       0.41671300
    94  C          0.44430000       0.69650000       0.35141700
    95  C          0.25551400       0.75530000       0.38078000
    96  C          0.34771200       0.70730000       0.33369000
    97  C          0.34181500       0.65030000       0.27329000
    98  H          0.40344800       0.61725300       0.24176300
    99  C          0.24371800       0.64130000       0.25989000
   100  H          0.23969900       0.60245200       0.21938600
   101  C          0.15151400       0.68940000       0.30681100
   102  H          0.08582800       0.68290500       0.29785900
   103  C          0.15741200       0.74630000       0.36731000
   104  H          0.09570400       0.77816000       0.39870900
   105  C          0.35530000       0.54240000       0.50611700
   106  H          0.32724500       0.46600700       0.48133300
   107  H          0.30587000       0.56007100       0.54800200
   108  H          0.42111500       0.48684800       0.51356000
   109  S          0.10401300       0.58020000       0.69928000
   110  N          0.05051700       0.46030000       0.76101200
   111  N          0.13030000       0.39540000       0.92551600
   112  H          0.13530300       0.50380000       0.95080000
   113  O          0.09430000       0.72040000       0.89041600
   114  H          0.12171600       0.61801100       0.90830000
   115  O          0.22220000       0.55330000       0.68661300
   116  O          0.06330000       0.53250000       0.64561700
   117  O          0.10620000       0.20440000       0.86261500
   118  C          0.04721800       0.83330000       0.78621000
   119  C          0.00520000      -0.00070000       0.80899000
   120  H         -0.00497900       0.01947600       0.85341000
   121  C          0.97580000       0.13420000       0.76501200
   122  H          0.94763700       0.24533600       0.78014900
   123  C          0.98980000       0.10430000       0.69841100
   124  H          0.97139600       0.19412900       0.66907900
   125  C          0.03301900       0.93830000       0.67588000
   126  H          0.04254100       0.91706100       0.63126900
   127  C          0.06141800       0.80220000       0.71971000
   128  C          0.07330000       0.69140000       0.83151600
   129  C          0.07830000       0.52060000       0.83120000
   130  C          0.09540000       0.36350000       0.87171800
   131  C          0.14120000       0.32030000       0.97761600
   132  C          0.16211700       0.13730000       0.97781300
   133  H          0.16239300       0.08702400       0.93845500
   134  C          0.18330000       0.01550000       0.02841400
   135  H          0.20003100       0.89292400       0.02350900
   136  C          0.17730000       0.09550000       0.08721900
   137  H          0.18217400       0.02791100       0.12621800
   138  C          0.16140000       0.28050000       0.08430000
   139  H          0.16819400       0.33334800       0.12064000
   140  N          0.13740000       0.39660000       0.03501800
   141  C          0.93780000       0.44350000       0.77751700
   142  H          0.91793800       0.40506900       0.73985500
   143  H          0.90053800       0.55648700       0.78924100
   144  H          0.91959600       0.35583800       0.81439000
   145  S          0.95751200       0.15620000       0.31257000
   146  C          0.46220000       0.17150000       0.28871600
   147  H          0.45700500       0.12791000       0.33261200
   148  N          0.64941800       0.23930000       0.27761000
   149  H          0.70976700       0.23175400       0.24922500
   150  N          0.84720000       0.27330000       0.29491300
   151  N          0.57731700       0.29240000       0.18261000
   152  O          0.56961900       0.26540000       0.38491200
   153  O          0.67331800       0.27940000       0.46541100
   154  H          0.61630000       0.28300000       0.44731500
   155  O          0.92120000       0.95960000       0.33051400
   156  O          0.04820000       0.17640000       0.25801400
   157  C          0.55320000       0.23930000       0.24771000
   158  C          0.37730000       0.17240000       0.25881300
   159  H          0.31229500       0.13800100       0.28409000
   160  C          0.38951900       0.22530000       0.19181200
   161  H          0.33576800       0.22589100       0.16977700
   162  C          0.49031500       0.27530000       0.16111300
   163  H          0.49980700       0.30415600       0.11571000
   164  C          0.65431900       0.25030000       0.34011200
   165  C          0.75730000       0.27240000       0.35361500
   166  C          0.76561400       0.27730000       0.41521100
   167  C          0.96111700       0.24730000       0.38718000
   168  C          0.86651300       0.29230000       0.43261000
   169  C          0.86761200       0.34030000       0.49529000
   170  H          0.80430400       0.37018100       0.52562300
   171  C          0.96341500       0.34430000       0.51229000
   172  H          0.96419400       0.37654200       0.55408800
   173  C          0.05811200       0.30030000       0.46671100
   174  H          0.12214700       0.30220800       0.47811700
   175  C          0.05691300       0.25140000       0.40411000
   176  H          0.12021300       0.22151200       0.37367900
   177  C          0.86640000       0.46060000       0.26220000
   178  H          0.93587500       0.46009100       0.23399800
   179  H          0.85773100       0.54258500       0.29596300
   180  H          0.81497600       0.49546900       0.23626900
