data_BIYSEH17
_symmetry_space_group_name_H-M    'P1'
_symmetry_Int_Tables_number       1
loop_
_symmetry_equiv_pos_site_id
_symmetry_equiv_pos_as_xyz
1 x,y,z
_cell_length_a                   12.9894
_cell_length_b                   9.0513
_cell_length_c                   12.8164
_cell_angle_alpha                90.0
_cell_angle_beta                 102.38217
_cell_angle_gamma                90.0
loop_
_atom_site_label
_atom_site_type_symbol
_atom_site_fract_x
_atom_site_fract_y
_atom_site_fract_z
     1  S          0.43076200       0.67962400       0.56354300
     2  S          0.56923800       0.17962400       0.93645700
     3  S          0.56923800       0.32037600       0.43645700
     4  S          0.43076200       0.82037600       0.06354300
     5  O          0.52993700       0.70444120       0.53498800
     6  O          0.47006300       0.20444120       0.96501200
     7  O          0.47006300       0.29555880       0.46501200
     8  O          0.52993700       0.79555880       0.03498800
     9  O          0.42688800       0.59172120       0.65542800
    10  O          0.57311200       0.09172120       0.84457200
    11  O          0.57311200       0.40827880       0.34457200
    12  O          0.42688800       0.90827880       0.15542800
    13  O          0.08689700       0.46028120       0.43850800
    14  O          0.91310300       0.96028120       0.06149200
    15  O          0.91310300       0.53971880       0.56149200
    16  O          0.08689700       0.03971880       0.93850800
    17  O          0.09744700       0.71753120       0.52039800
    18  O          0.90255300       0.21753120       0.97960200
    19  O          0.90255300       0.28246880       0.47960200
    20  O          0.09744700       0.78246880       0.02039800
    21  H          0.07231600       0.63420000       0.49371600
    22  H          0.92768400       0.13420000       0.00628400
    23  H          0.92768400       0.36580000       0.50628400
    24  H          0.07231600       0.86580000      -0.00628400
    25  N          0.35096800       0.60544130       0.46051900
    26  N          0.64903200       0.10544130       0.03948100
    27  N          0.64903200       0.39455870       0.53948100
    28  N          0.35096800       0.89455870       0.96051900
    29  N          0.23492900       0.35275130       0.40167900
    30  N          0.76507100       0.85275130       0.09832100
    31  N          0.76507100       0.64724870       0.59832100
    32  N          0.23492900       0.14724870       0.90167900
    33  H          0.29871500       0.36220000       0.41211500
    34  H          0.70128500       0.86220000       0.08788500
    35  H          0.70128500       0.63780000       0.58788500
    36  H          0.29871500       0.13780000       0.91211500
    37  N          0.26248900       0.14455140       0.31124100
    38  N          0.73751100       0.64455140       0.18875900
    39  N          0.73751100       0.85544860       0.68875900
    40  N          0.26248900       0.35544860       0.81124100
    41  C          0.24340100       0.59970150       0.47152100
    42  C          0.75659900       0.09970150       0.02847900
    43  C          0.75659900       0.40029850       0.52847900
    44  C          0.24340100       0.90029850       0.97152100
    45  C          0.19839100       0.71607150       0.51238100
    46  C          0.80160900       0.21607150       0.98761900
    47  C          0.80160900       0.28392850       0.48761900
    48  C          0.19839100       0.78392850       0.01238100
    49  C          0.20629110       0.97875160       0.57194110
    50  C          0.79370890       0.47875160       0.92805890
    51  C          0.79370890       0.02124840       0.42805890
    52  C          0.20629110       0.52124840       0.07194110
    53  H          0.13147500       0.98142600       0.55803700
    54  H          0.86852500       0.48142600       0.94196300
    55  H          0.86852500       0.01857400       0.44196300
    56  H          0.13147500       0.51857400       0.05803700
    57  C          0.26401120       0.10365170       0.61073110
    58  C          0.73598880       0.60365170       0.88926890
    59  C          0.73598880       0.89634830       0.38926890
    60  C          0.26401120       0.39634830       0.11073110
    61  H          0.22830300       0.19132300       0.62326200
    62  H          0.77169700       0.69132300       0.87673800
    63  H          0.77169700       0.80867700       0.37673800
    64  H          0.22830300       0.30867700       0.12326200
    65  C          0.37352120       0.10172170       0.63143110
    66  C          0.62647880       0.60172170       0.86856890
    67  C          0.62647880       0.89827830       0.36856890
    68  C          0.37352120       0.39827830       0.13143110
    69  H          0.41207800       0.18807800       0.65766700
    70  H          0.58792200       0.68807800       0.84233300
    71  H          0.58792200       0.81192200       0.34233300
    72  H          0.41207800       0.31192200       0.15766700
    73  C          0.42688110       0.97415170       0.61394110
    74  C          0.57311890       0.47415170       0.88605890
    75  C          0.57311890       0.02584830       0.38605890
    76  C          0.42688110       0.52584830       0.11394110
    77  H          0.50169500       0.97257900       0.62734600
    78  H          0.49830500       0.47257900       0.87265400
    79  H          0.49830500       0.02742100       0.37265400
    80  H          0.50169500       0.52742100       0.12734600
    81  C          0.36880100       0.84910160       0.57653100
    82  C          0.63119900       0.34910160       0.92346900
    83  C          0.63119900       0.15089840       0.42346900
    84  C          0.36880100       0.65089840       0.07653100
    85  C          0.25783100       0.84933150       0.55333100
    86  C          0.74216900       0.34933150       0.94666900
    87  C          0.74216900       0.15066850       0.44666900
    88  C          0.25783100       0.65066850       0.05333100
    89  C          0.36642110       0.65382170       0.35413110
    90  C          0.63357890       0.15382170       0.14586890
    91  C          0.63357890       0.34617830       0.64586890
    92  C          0.36642110       0.84617830       0.85413110
    93  H          0.35420600       0.76049100       0.34631100
    94  H          0.64579400       0.26049100       0.15368900
    95  H          0.64579400       0.23950900       0.65368900
    96  H          0.35420600       0.73950900       0.84631100
    97  H          0.31658800       0.60157400       0.29799700
    98  H          0.68341200       0.10157400       0.20200300
    99  H          0.68341200       0.39842600       0.70200300
   100  H          0.31658800       0.89842600       0.79799700
   101  H          0.43866400       0.63131400       0.34792200
   102  H          0.56133600       0.13131400       0.15207800
   103  H          0.56133600       0.36868600       0.65207800
   104  H          0.43866400       0.86868600       0.84792200
   105  C          0.18259100       0.46564150       0.43656100
   106  C          0.81740900       0.96564150       0.06343900
   107  C          0.81740900       0.53435850       0.56343900
   108  C          0.18259100       0.03435850       0.93656100
   109  C          0.19301100       0.21992150       0.35395100
   110  C          0.80698900       0.71992150       0.14604900
   111  C          0.80698900       0.78007850       0.64604900
   112  C          0.19301100       0.28007850       0.85395100
   113  C          0.09018110       0.17158160       0.35095120
   114  C          0.90981890       0.67158160       0.14904880
   115  C          0.90981890       0.82841840       0.64904880
   116  C          0.09018110       0.32841840       0.85095120
   117  H          0.04298400       0.22828000       0.38203000
   118  H          0.95701600       0.72828000       0.11797000
   119  H          0.95701600       0.77172000       0.61797000
   120  H          0.04298400       0.27172000       0.88203000
   121  C          0.05969110       0.03846180       0.30118120
   122  C          0.94030890       0.53846180       0.19881880
   123  C          0.94030890       0.96153820       0.69881880
   124  C          0.05969110       0.46153820       0.80118120
   125  H         -0.00964100       0.00208900       0.29727500
   126  H          0.00964100       0.50208900       0.20272500
   127  H          0.00964100      -0.00208900       0.70272500
   128  H         -0.00964100       0.49791100       0.79727500
   129  C          0.13064120       0.95789820       0.25686120
   130  C          0.86935880       0.45789820       0.24313880
   131  C          0.86935880       0.04210180       0.74313880
   132  C          0.13064120       0.54210180       0.75686120
   133  H          0.11136100       0.86576600       0.22271400
   134  H          0.88863900       0.36576600       0.27728600
   135  H          0.88863900       0.13423400       0.77728600
   136  H          0.11136100       0.63423400       0.72271400
   137  C          0.23029120       0.01627170       0.26408120
   138  C          0.76970880       0.51627170       0.23591880
   139  C          0.76970880       0.98372830       0.73591880
   140  C          0.23029120       0.48372830       0.76408120
   141  H          0.27889300       0.96159300       0.23354000
   142  H          0.72110700       0.46159300       0.26646000
   143  H          0.72110700       0.03840700       0.76646000
   144  H          0.27889300       0.53840700       0.73354000
