data_BIYSEH08
_symmetry_space_group_name_H-M    'P1'
_symmetry_Int_Tables_number       1
loop_
_symmetry_equiv_pos_site_id
_symmetry_equiv_pos_as_xyz
1 x,y,z
_cell_length_a                   17.396414
_cell_length_b                   11.79651
_cell_length_c                   6.98515
_cell_angle_alpha                90.0
_cell_angle_beta                 90.0
_cell_angle_gamma                90.0
loop_
_atom_site_label
_atom_site_type_symbol
_atom_site_fract_x
_atom_site_fract_y
_atom_site_fract_z
     1  S          0.30322000       0.44563000      -0.00725000
     2  S          0.69678000       0.55437000       0.49275000
     3  S          0.69678000       0.94563000      -0.00725000
     4  S          0.30322000       0.05437000       0.49275000
     5  O          0.30815000       0.32617000       0.04361100
     6  O          0.69185000       0.67383000       0.54361100
     7  O          0.69185000       0.82617000       0.04361100
     8  O          0.30815000       0.17383000       0.54361100
     9  O          0.27775000       0.47907000       0.80648800
    10  O          0.72225000       0.52093000       0.30648800
    11  O          0.72225000       0.97907000       0.80648800
    12  O          0.27775000       0.02093000       0.30648800
    13  O          0.17295000       0.79758000       0.16541300
    14  O          0.82705000       0.20242000       0.66541300
    15  O          0.82705000       0.29758000       0.16541300
    16  O          0.17295000       0.70242000       0.66541300
    17  O          0.31965000       0.79968000       0.11481300
    18  O          0.68035000       0.20032000       0.61481300
    19  O          0.68035000       0.29968000       0.11481300
    20  O          0.31965000       0.70032000       0.61481300
    21  H          0.27670000       0.82720000       0.12820000
    22  H          0.72330000       0.17280000       0.62820000
    23  H          0.72330000       0.32720000       0.12820000
    24  H          0.27670000       0.67280000       0.62820000
    25  N          0.24576000       0.50739000       0.15021300
    26  N          0.75424000       0.49261000       0.65021300
    27  N          0.75424000       0.00739000       0.15021300
    28  N          0.24576000      -0.00739000       0.65021300
    29  N          0.11198000       0.62601000       0.15481600
    30  N          0.88802000       0.37399000       0.65481600
    31  N          0.88802000       0.12601000       0.15481600
    32  N          0.11198000       0.87399000       0.65481600
    33  H          0.12020000       0.55490000       0.13750000
    34  H          0.87980000       0.44510000       0.63750000
    35  H          0.87980000       0.05490000       0.13750000
    36  H          0.12020000       0.94510000       0.63750000
    37  N          0.98853000       0.56211000       0.18901500
    38  N          0.01147000       0.43789000       0.68901500
    39  N          0.01147000       0.06211000       0.18901500
    40  N          0.98853000       0.93789000       0.68901500
    41  C          0.24681000       0.62881300       0.13581800
    42  C          0.75319000       0.37118700       0.63581800
    43  C          0.75319000       0.12881300       0.13581800
    44  C          0.24681000       0.87118700       0.63581800
    45  C          0.31421100       0.68321400       0.11591800
    46  C          0.68578900       0.31678600       0.61591800
    47  C          0.68578900       0.18321400       0.11591800
    48  C          0.31421100       0.81678600       0.61591800
    49  C          0.45691000       0.68391300       0.11241800
    50  C          0.54309000       0.31608700       0.61241800
    51  C          0.54309000       0.18391300       0.11241800
    52  C          0.45691000       0.81608700       0.61241800
    53  H          0.45640000       0.75990000       0.14780000
    54  H          0.54360000       0.24010000       0.64780000
    55  H          0.54360000       0.25990000       0.14780000
    56  H          0.45640000       0.74010000       0.64780000
    57  C          0.52751000       0.62901400       0.08621800
    58  C          0.47249000       0.37098600       0.58621800
    59  C          0.47249000       0.12901400       0.08621800
    60  C          0.52751000       0.87098600       0.58621800
    61  H          0.57340000       0.66900000       0.09470000
    62  H          0.42660000       0.33100000       0.59470000
    63  H          0.42660000       0.16900000       0.09470000
    64  H          0.57340000       0.83100000       0.59470000
    65  C          0.52731000       0.51581400       0.04801800
    66  C          0.47269000       0.48418600       0.54801800
    67  C          0.47269000       0.01581400       0.04801800
    68  C          0.52731000       0.98418600       0.54801800
    69  H          0.57370000       0.47690000       0.03970000
    70  H          0.42630000       0.52310000       0.53970000
    71  H          0.42630000       0.97690000       0.03970000
    72  H          0.57370000       0.02310000       0.53970000
    73  C          0.45871000       0.45791300       0.02141900
    74  C          0.54129000       0.54208700       0.52141900
    75  C          0.54129000       0.95791300       0.02141900
    76  C          0.45871000       0.04208700       0.52141900
    77  H          0.45890000       0.38120000      -0.00930000
    78  H          0.54110000       0.61880000       0.49070000
    79  H          0.54110000       0.88120000      -0.00930000
    80  H          0.45890000       0.11880000       0.49070000
    81  C          0.39169000       0.51471300       0.04071600
    82  C          0.60831000       0.48528700       0.54071600
    83  C          0.60831000       0.01471300       0.04071600
    84  C          0.39169000       0.98528700       0.54071600
    85  C          0.38791100       0.62781400       0.08681600
    86  C          0.61208900       0.37218600       0.58681600
    87  C          0.61208900       0.12781400       0.08681600
    88  C          0.38791100       0.87218600       0.58681600
    89  C          0.25017000       0.46231100       0.34761700
    90  C          0.74983000       0.53768900       0.84761700
    91  C          0.74983000       0.96231100       0.34761700
    92  C          0.25017000       0.03768900       0.84761700
    93  H          0.21580000       0.50400000       0.42880000
    94  H          0.78420000       0.49600000       0.92880000
    95  H          0.78420000       0.00400000       0.42880000
    96  H          0.21580000      -0.00400000       0.92880000
    97  H          0.30170000       0.46980000       0.39450000
    98  H          0.69830000       0.53020000       0.89450000
    99  H          0.69830000       0.96980000       0.39450000
   100  H          0.30170000       0.03020000       0.89450000
   101  H          0.23580000       0.38370000       0.34760000
   102  H          0.76420000       0.61630000       0.84760000
   103  H          0.76420000       0.88370000       0.34760000
   104  H          0.23580000       0.11630000       0.84760000
   105  C          0.17511100       0.69301600       0.15320000
   106  C          0.82488900       0.30698400       0.65320000
   107  C          0.82488900       0.19301600       0.15320000
   108  C          0.17511100       0.80698400       0.65320000
   109  C          0.03241000       0.65741300       0.18220000
   110  C          0.96759000       0.34258700       0.68220000
   111  C          0.96759000       0.15741300       0.18220000
   112  C          0.03241000       0.84258700       0.68220000
   113  C          0.00598000       0.76571300       0.18961600
   114  C         -0.00598000       0.23428700       0.68961600
   115  C         -0.00598000       0.26571300       0.18961600
   116  C          0.00598000       0.73428700       0.68961600
   117  H          0.03910000       0.82710000       0.17850000
   118  H          0.96090000       0.17290000       0.67850000
   119  H          0.96090000       0.32710000       0.17850000
   120  H          0.03910000       0.67290000       0.67850000
   121  C          0.92801000       0.78081300       0.21420000
   122  C          0.07199000       0.21918700       0.71420000
   123  C          0.07199000       0.28081300       0.21420000
   124  C          0.92801000       0.71918700       0.71420000
   125  H          0.90770000       0.85330000       0.22420000
   126  H          0.09230000       0.14670000       0.72420000
   127  H          0.09230000       0.35330000       0.22420000
   128  H          0.90770000       0.64670000       0.72420000
   129  C          0.88072000       0.68711300       0.22391800
   130  C          0.11928000       0.31288700       0.72391800
   131  C          0.11928000       0.18711300       0.22391800
   132  C          0.88072000       0.81288700       0.72391800
   133  H          0.82800000       0.69520000       0.23930000
   134  H          0.17200000       0.30480000       0.73930000
   135  H          0.17200000       0.19520000       0.23930000
   136  H          0.82800000       0.80480000       0.73930000
   137  C          0.91359000       0.58231300       0.21020000
   138  C          0.08641000       0.41768700       0.71020000
   139  C          0.08641000       0.08231300       0.21020000
   140  C          0.91359000       0.91768700       0.71020000
   141  H          0.88110000       0.51990000       0.21670000
   142  H          0.11890000       0.48010000       0.71670000
   143  H          0.11890000       0.01990000       0.21670000
   144  H          0.88110000       0.98010000       0.71670000
