data_BIYSEH
_symmetry_space_group_name_H-M    'P1'
_symmetry_Int_Tables_number       1
loop_
_symmetry_equiv_pos_site_id
_symmetry_equiv_pos_as_xyz
1 x,y,z
_cell_length_a                   7.1272
_cell_length_b                   15.1367
_cell_length_c                   13.9496
_cell_angle_alpha                90.0
_cell_angle_beta                 97.354
_cell_angle_gamma                90.0
loop_
_atom_site_label
_atom_site_type_symbol
_atom_site_fract_x
_atom_site_fract_y
_atom_site_fract_z
     1  S          0.55300000       0.40380000       0.09890000
     2  S          0.44700000       0.90380000       0.40110000
     3  S          0.44700000       0.59620000       0.90110000
     4  S          0.55300000       0.09620000       0.59890000
     5  N          0.34120000       0.38600000       0.04080000
     6  N          0.65880000       0.88600000       0.45920000
     7  N          0.65880000       0.61400000       0.95920000
     8  N          0.34120000       0.11400000       0.54080000
     9  C          0.31880000       0.29890000       0.00190000
    10  C          0.68120000       0.79890000       0.49810000
    11  C          0.68120000       0.70110000      -0.00190000
    12  C          0.31880000       0.20110000       0.50190000
    13  C          0.39270000       0.22790000       0.05460000
    14  C          0.60730000       0.72790000       0.44540000
    15  C          0.60730000       0.77210000       0.94540000
    16  C          0.39270000       0.27210000       0.55460000
    17  C          0.51930000       0.16500000       0.21540000
    18  C          0.48070000       0.66500000       0.28460000
    19  C          0.48070000       0.83500000       0.78460000
    20  C          0.51930000       0.33500000       0.71540000
    21  C          0.61040000       0.17710000       0.30780000
    22  C          0.38960000       0.67710000       0.19220000
    23  C          0.38960000       0.82290000       0.69220000
    24  C          0.61040000       0.32290000       0.80780000
    25  C          0.67890000       0.25850000       0.33840000
    26  C          0.32110000       0.75850000       0.16160000
    27  C          0.32110000       0.74150000       0.66160000
    28  C          0.67890000       0.24150000       0.83840000
    29  C          0.66010000       0.33040000       0.27640000
    30  C          0.33990000       0.83040000       0.22360000
    31  C          0.33990000       0.66960000       0.72360000
    32  C          0.66010000       0.16960000       0.77640000
    33  C          0.57130000       0.31820000       0.18380000
    34  C          0.42870000       0.81820000       0.31620000
    35  C          0.42870000       0.68180000       0.81620000
    36  C          0.57130000       0.18180000       0.68380000
    37  C          0.49640000       0.23660000       0.15150000
    38  C          0.50360000       0.73660000       0.34850000
    39  C          0.50360000       0.76340000       0.84850000
    40  C          0.49640000       0.26340000       0.65150000
    41  O          0.55130000       0.48660000       0.14770000
    42  O          0.44870000       0.98660000       0.35230000
    43  O          0.44870000       0.51340000       0.85230000
    44  O          0.55130000       0.01340000       0.64770000
    45  O          0.68830000       0.38910000       0.03370000
    46  O          0.31170000       0.88910000       0.46630000
    47  O          0.31170000       0.61090000       0.96630000
    48  O          0.68830000       0.11090000       0.53370000
    49  C          0.18190000       0.42100000       0.08780000
    50  C          0.81810000       0.92100000       0.41220000
    51  C          0.81810000       0.57900000       0.91220000
    52  C          0.18190000       0.07900000       0.58780000
    53  C          0.21540000       0.28750000       0.90530000
    54  C          0.78460000       0.78750000       0.59470000
    55  C          0.78460000       0.71250000       0.09470000
    56  C          0.21540000       0.21250000       0.40530000
    57  O          0.17860000       0.21270000       0.87200000
    58  O          0.82140000       0.71270000       0.62800000
    59  O          0.82140000       0.78730000       0.12800000
    60  O          0.17860000       0.28730000       0.37200000
    61  N          0.16410000       0.36300000       0.85710000
    62  N          0.83590000       0.86300000       0.64290000
    63  N          0.83590000       0.63700000       0.14290000
    64  N          0.16410000       0.13700000       0.35710000
    65  O          0.37540000       0.14510000       0.02030000
    66  O          0.62460000       0.64510000       0.47970000
    67  O          0.62460000       0.85490000       0.97970000
    68  O          0.37540000       0.35490000       0.52030000
    69  N          0.02910000       0.45840000       0.74280000
    70  N          0.97090000       0.95840000       0.75720000
    71  N          0.97090000       0.54160000       0.25720000
    72  N          0.02910000       0.04160000       0.24280000
    73  C          0.06950000       0.37490000       0.76300000
    74  C          0.93050000       0.87490000       0.73700000
    75  C          0.93050000       0.62510000       0.23700000
    76  C          0.06950000       0.12510000       0.26300000
    77  C          0.02490000       0.30610000       0.69850000
    78  C          0.97510000       0.80610000       0.80150000
    79  C          0.97510000       0.69390000       0.30150000
    80  C          0.02490000       0.19390000       0.19850000
    81  C          0.93490000       0.32720000       0.60790000
    82  C          0.06510000       0.82720000       0.89210000
    83  C          0.06510000       0.67280000       0.39210000
    84  C          0.93490000       0.17280000       0.10790000
    85  C          0.89070000       0.41280000       0.58530000
    86  C          0.10930000       0.91280000       0.91470000
    87  C          0.10930000       0.58720000       0.41470000
    88  C          0.89070000       0.08720000       0.08530000
    89  C          0.94060000       0.47620000       0.65440000
    90  C          0.05940000       0.97620000       0.84560000
    91  C          0.05940000       0.52380000       0.34560000
    92  C          0.94060000       0.02380000       0.15440000
    93  H          0.47400000       0.11000000       0.19700000
    94  H          0.52600000       0.61000000       0.30300000
    95  H          0.52600000       0.89000000       0.80300000
    96  H          0.47400000       0.39000000       0.69700000
    97  H          0.63200000       0.12500000       0.35500000
    98  H          0.36800000       0.62500000       0.14500000
    99  H          0.36800000       0.87500000       0.64500000
   100  H          0.63200000       0.37500000       0.85500000
   101  H          0.73500000       0.26300000       0.39500000
   102  H          0.26500000       0.76300000       0.10500000
   103  H          0.26500000       0.73700000       0.60500000
   104  H          0.73500000       0.23700000       0.89500000
   105  H          0.70900000       0.38300000       0.29600000
   106  H          0.29100000       0.88300000       0.20400000
   107  H          0.29100000       0.61700000       0.70400000
   108  H          0.70900000       0.11700000       0.79600000
   109  H          0.19200000       0.47800000       0.10300000
   110  H          0.80800000       0.97800000       0.39700000
   111  H          0.80800000       0.52200000       0.89700000
   112  H          0.19200000       0.02200000       0.60300000
   113  H          0.17700000       0.39200000       0.15000000
   114  H          0.82300000       0.89200000       0.35000000
   115  H          0.82300000       0.60800000       0.85000000
   116  H          0.17700000       0.10800000       0.65000000
   117  H          0.06400000       0.40400000       0.04600000
   118  H          0.93600000       0.90400000       0.45400000
   119  H          0.93600000       0.59600000       0.95400000
   120  H          0.06400000       0.09600000       0.54600000
   121  H          0.19700000       0.41100000       0.88400000
   122  H          0.80300000       0.91100000       0.61600000
   123  H          0.80300000       0.58900000       0.11600000
   124  H          0.19700000       0.08900000       0.38400000
   125  H          0.31200000       0.15200000       0.96800000
   126  H          0.68800000       0.65200000       0.53200000
   127  H          0.68800000       0.84800000       0.03200000
   128  H          0.31200000       0.34800000       0.46800000
   129  H          0.06500000       0.25200000       0.71600000
   130  H          0.93500000       0.75200000       0.78400000
   131  H          0.93500000       0.74800000       0.28400000
   132  H          0.06500000       0.24800000       0.21600000
   133  H          0.91400000       0.28200000       0.56200000
   134  H          0.08600000       0.78200000       0.93800000
   135  H          0.08600000       0.71800000       0.43800000
   136  H          0.91400000       0.21800000       0.06200000
   137  H          0.83200000       0.43300000       0.52800000
   138  H          0.16800000       0.93300000       0.97200000
   139  H          0.16800000       0.56700000       0.47200000
   140  H          0.83200000       0.06700000       0.02800000
   141  H          0.92400000       0.53100000       0.64300000
   142  H          0.07600000       0.03100000       0.85700000
   143  H          0.07600000       0.46900000       0.35700000
   144  H          0.92400000       0.96900000       0.14300000
