data_BIYSEH11
_symmetry_space_group_name_H-M    'P1'
_symmetry_Int_Tables_number       1
loop_
_symmetry_equiv_pos_site_id
_symmetry_equiv_pos_as_xyz
1 x,y,z
_cell_length_a                   7.85573
_cell_length_b                   10.10434
_cell_length_c                   10.47135
_cell_angle_alpha                80.6022
_cell_angle_beta                 68.9522
_cell_angle_gamma                69.7422
loop_
_atom_site_label
_atom_site_type_symbol
_atom_site_fract_x
_atom_site_fract_y
_atom_site_fract_z
     1  H          0.38820000       0.45731800       0.38511900
     2  H          0.61180000       0.54268200       0.61488100
     3  H          0.25030000       0.60720000       0.00820000
     4  H          0.74970000       0.39280000      -0.00820000
     5  H          0.17730000       0.21320000       0.41720000
     6  H          0.82270000       0.78680000       0.58280000
     7  H          0.37130000       0.37101900       0.07620000
     8  H          0.62870000       0.62898100       0.92380000
     9  H          0.20720000       0.72488300       0.31031800
    10  H          0.79280000       0.27511700       0.68968200
    11  H          0.24420000       0.85368300       0.46691900
    12  H          0.75580000       0.14631700       0.53308100
    13  H          0.40230000       0.18771800       0.95501900
    14  H          0.59770000       0.81228200       0.04498100
    15  H          0.13830000       0.65420000       0.81520000
    16  H          0.86170000       0.34580000       0.18480000
    17  H          0.47830000       0.28631900       0.38420000
    18  H          0.52170000       0.71368100       0.61580000
    19  H          0.13130000       0.85108100       0.11420000
    20  H          0.86870000       0.14891900       0.88580000
    21  H          0.51130000       0.37971800       0.48071900
    22  H          0.48870000       0.62028200       0.51928100
    23  H          0.31430000       0.01120000       0.75030000
    24  H          0.68570000      -0.01120000       0.24970000
    25  H          0.10730000       0.09271800       0.07711900
    26  H          0.89270000       0.90728200       0.92288100
    27  S          0.10345500       0.48134400       0.64541400
    28  S          0.89654500       0.51865600       0.35458600
    29  O          0.30517150       0.97225890       0.60096120
    30  O          0.69482850       0.02774110       0.39903880
    31  O          0.31423170       0.06435120       0.80968120
    32  O          0.68576830       0.93564880       0.19031880
    33  N          0.24278170       0.34877120       0.54512130
    34  N          0.75721830       0.65122880       0.45487870
    35  O          0.91536850       0.46633110       0.70252120
    36  O          0.08463150       0.53366890       0.29747880
    37  O          0.12639160       0.60977110       0.57048120
    38  O          0.87360840       0.39022890       0.42951880
    39  N          0.21808190       0.13009140       0.43372140
    40  N          0.78191810       0.86990860       0.56627860
    41  C          0.26572000       0.21239150       0.61662160
    42  C          0.73428000       0.78760850       0.38337840
    43  C          0.21712000       0.89918840       0.38256170
    44  C          0.78288000       0.10081160       0.61743830
    45  C          0.26482000       0.09536160       0.54980160
    46  C          0.73518000       0.90463840       0.45019840
    47  C          0.28832000       0.19138160       0.74243160
    48  C          0.71168000       0.80861840       0.25756840
    49  N          0.15782000       0.11253140       0.24002140
    50  N          0.84218000       0.88746860       0.75997860
    51  C          0.19892000       0.04247160       0.35110160
    52  C          0.80108000       0.95752840       0.64889840
    53  C          0.20272000       0.44796160       0.77797160
    54  C          0.79728000       0.55203840       0.22202840
    55  C          0.27922000       0.30656160       0.81758160
    56  C          0.72078000       0.69343840       0.18241840
    57  C          0.25762000       0.52844180       0.95769180
    58  C          0.74238000       0.47155820       0.04230820
    59  C          0.19322000       0.55976170       0.84556170
    60  C          0.80678000       0.44023830       0.15443830
    61  C          0.33142000       0.38885190      -0.00003820
    62  C          0.66858000       0.61114810       0.00003820
    63  C          0.15202000       0.89596820       0.17690180
    64  C          0.84798000       0.10403180       0.82309820
    65  C          0.19382000       0.82593830       0.29239180
    66  C          0.80618000       0.17406170       0.70760820
    67  C          0.34442000       0.27843180       0.93037170
    68  C          0.65558000       0.72156820       0.06962830
    69  C          0.42102000       0.36762170       0.44048180
    70  C          0.57898000       0.63237830       0.55951820
    71  C          0.13452000       0.03881180       0.15551180
    72  C          0.86548000       0.96118820       0.84448820
