data_BIYSEH22
_symmetry_space_group_name_H-M    'P1'
_symmetry_Int_Tables_number       1
loop_
_symmetry_equiv_pos_site_id
_symmetry_equiv_pos_as_xyz
1 x,y,z
_cell_length_a                   19.7094
_cell_length_b                   7.971016
_cell_length_c                   21.3684
_cell_angle_alpha                90.0
_cell_angle_beta                 105.933
_cell_angle_gamma                90.0
loop_
_atom_site_label
_atom_site_type_symbol
_atom_site_fract_x
_atom_site_fract_y
_atom_site_fract_z
     1  C          0.52995000       0.51511000       0.64604000
     2  C          0.97005000       0.01511000       0.85396000
     3  C          0.47005000       0.48489000       0.35396000
     4  C          0.02995000      -0.01511000       0.14604000
     5  C          0.59954000       0.47371200       0.67716000
     6  C          0.90046000       0.97371200       0.82284000
     7  C          0.40046000       0.52628800       0.32284000
     8  C          0.09954000       0.02628800       0.17716000
     9  C          0.61465000       0.36551400       0.73025000
    10  C          0.88535000       0.86551400       0.76975000
    11  C          0.38535000       0.63448600       0.26975000
    12  C          0.11465000       0.13448600       0.23025000
    13  H          0.66120800       0.33773600       0.75097300
    14  H          0.83879200       0.83773600       0.74902700
    15  H          0.33879200       0.66226400       0.24902700
    16  H          0.16120800       0.16226400       0.25097300
    17  C          0.56028000       0.29871300       0.75215000
    18  C          0.93972000       0.79871300       0.74785000
    19  C          0.43972000       0.70128700       0.24785000
    20  C          0.06028000       0.20128700       0.25215000
    21  H          0.57029500       0.22624100       0.78759300
    22  H          0.92970500       0.72624100       0.71240700
    23  H          0.42970500       0.77375900       0.21240700
    24  H          0.07029500       0.27375900       0.28759300
    25  C          0.49067000       0.34011400       0.72106000
    26  C          0.00933000       0.84011400       0.77894000
    27  C          0.50933000       0.65988600       0.27894000
    28  C          0.99067000       0.15988600       0.22106000
    29  H          0.45412200       0.29537900       0.73568600
    30  H          0.04587800       0.79537900       0.76431400
    31  H          0.54587800       0.70462100       0.26431400
    32  H          0.95412200       0.20462100       0.23568600
    33  C          0.47544000       0.44831300       0.66806000
    34  C          0.02456000       0.94831300       0.83194000
    35  C          0.52456000       0.55168700       0.33194000
    36  C          0.97544000       0.05168700       0.16806000
    37  H          0.42886000       0.47601400       0.64715800
    38  H          0.07114000       0.97601400       0.85284200
    39  H          0.57114000       0.52398600       0.35284200
    40  H          0.92886000       0.02398600       0.14715800
    41  S          0.66873000       0.55559000       0.65004000
    42  S          0.83127000       0.05559000       0.84996000
    43  S          0.33127000       0.44441000       0.34996000
    44  S          0.16873000       0.94441000       0.15004000
    45  N          0.68446000       0.88321600       0.42108000
    46  N          0.81554000       0.38321600       0.07892000
    47  N          0.31554000       0.11678400       0.57892000
    48  N          0.18446000       0.61678400       0.92108000
    49  O          0.49456000       0.80131400       0.46867000
    50  O          0.00544000       0.30131400       0.03133000
    51  O          0.50544000       0.19868600       0.53133000
    52  O         -0.00544000       0.69868600       0.96867000
    53  N          0.61527000       0.85931400       0.49338000
    54  N          0.88473000       0.35931400       0.00662000
    55  N          0.38473000       0.14068600       0.50662000
    56  N          0.11527000       0.64068600      -0.00662000
    57  H          0.65262700       0.85874600       0.52555700
    58  H          0.84737300       0.35874600       0.97444300
    59  H          0.34737300       0.14125400       0.47444300
    60  H          0.15262700       0.64125400       0.02555700
    61  O          0.67488000       0.45820000       0.59609000
    62  O          0.82512000       0.95820000       0.90391000
    63  O          0.32512000       0.54180000       0.40391000
    64  O          0.17488000       0.04180000       0.09609000
    65  N          0.63486000       0.74021400       0.62078000
    66  N          0.86514000       0.24021400       0.87922000
    67  N          0.36514000       0.25978600       0.37922000
    68  N          0.13486000       0.75978600       0.12078000
    69  O          0.73147000       0.57920000       0.70108000
    70  O          0.76853000       0.07920000       0.79892000
    71  O          0.26853000       0.42080000       0.29892000
    72  O          0.23147000       0.92080000       0.20108000
    73  O          0.44896000       0.60401500       0.54528000
    74  O          0.05104000       0.10401500       0.95472000
    75  O          0.55104000       0.39598500       0.45472000
    76  O          0.94896000       0.89598500       0.04528000
    77  H          0.44561600       0.67210000       0.50420000
    78  H          0.05438400       0.17210000      -0.00420000
    79  H          0.55438400       0.32790000       0.49580000
    80  H          0.94561600       0.82790000       0.00420000
    81  C          0.62307000       0.91801500       0.43458000
    82  C          0.87693000       0.41801500       0.06542000
    83  C          0.37693000       0.08198500       0.56542000
    84  C          0.12307000       0.58198500       0.93458000
    85  C          0.57018000       0.00431800       0.38771100
    86  C          0.92982000       0.50431800       0.11228900
    87  C          0.42982000      -0.00431800       0.61228900
    88  C          0.07018000       0.49568200       0.88771100
    89  H          0.52598500       0.01967300       0.39473800
    90  H          0.97401500       0.51967300       0.10526200
    91  H          0.47401500       0.98032700       0.60526200
    92  H          0.02598500       0.48032700       0.89473800
    93  C          0.58271100       0.06720000       0.33071200
    94  C          0.91728900       0.56720000       0.16928800
    95  C          0.41728900       0.93280000       0.66928800
    96  C          0.08271100       0.43280000       0.83071200
    97  H          0.54943600       0.13401600       0.30226000
    98  H          0.95056400       0.63401600       0.19774000
    99  H          0.45056400       0.86598400       0.69774000
   100  H          0.04943600       0.36598400       0.80226000
   101  C          0.64679000       0.02671500       0.31769000
   102  C          0.85321000       0.52671500       0.18231000
   103  C          0.35321000       0.97328500       0.68231000
   104  C          0.14679000       0.47328500       0.81769000
   105  H          0.65603100       0.05867400       0.27892300
   106  H          0.84396900       0.55867400       0.22107700
   107  H          0.34396900       0.94132600       0.72107700
   108  H          0.15603100       0.44132600       0.77892300
   109  C          0.69568000       0.93701600       0.36489000
   110  C          0.80432000       0.43701600       0.13511000
   111  C          0.30432000       0.06298400       0.63511000
   112  C          0.19568000       0.56298400       0.86489000
   113  H          0.73879100       0.91244300       0.35728900
   114  H          0.76120900       0.41244300       0.14271100
   115  H          0.26120900       0.08755700       0.64271100
   116  H          0.23879100       0.58755700       0.85728900
   117  C          0.55407000       0.80161400       0.50577000
   118  C          0.94593000       0.30161400      -0.00577000
   119  C          0.44593000       0.19838600       0.49423000
   120  C          0.05407000       0.69838600       0.00577000
   121  C          0.56897000       0.72081700       0.57288000
   122  C          0.93103000       0.22081700       0.92712000
   123  C          0.43103000       0.27918300       0.42712000
   124  C          0.06897000       0.77918300       0.07288000
   125  C          0.51377000       0.61681600       0.58508000
   126  C          0.98623000       0.11681600       0.91492000
   127  C          0.48623000       0.38318400       0.41492000
   128  C          0.01377000       0.88318400       0.08508000
   129  C          0.63829000       0.88571800       0.66811000
   130  C          0.86171000       0.38571800       0.83189000
   131  C          0.36171000       0.11428200       0.33189000
   132  C          0.13829000       0.61428200       0.16811000
   133  H          0.62639600      -0.01157900       0.64413900
   134  H          0.87360400       0.48842100       0.85586100
   135  H          0.37360400       0.01157900       0.35586100
   136  H          0.12639600       0.51157900       0.14413900
   137  H          0.68509600       0.89375900       0.69674900
   138  H          0.81490400       0.39375900       0.80325100
   139  H          0.31490400       0.10624100       0.30325100
   140  H          0.18509600       0.60624100       0.19674900
   141  H          0.60536600       0.86621300       0.69318700
   142  H          0.89463400       0.36621300       0.80681300
   143  H          0.39463400       0.13378700       0.30681300
   144  H          0.10536600       0.63378700       0.19318700
   145  C          0.92424000       0.10531000       0.44324000
   146  C          0.57576000       0.60531000       0.05676000
   147  C          0.07576000       0.89469000       0.55676000
   148  C          0.42424000       0.39469000       0.94324000
   149  H          0.95517900       0.08095100       0.48353300
   150  H          0.54482100       0.58095100       0.01646700
   151  H          0.04482100       0.91904900       0.51646700
   152  H          0.45517900       0.41904900       0.98353300
   153  C          0.88865000       0.25789000       0.43324000
   154  C          0.61135000       0.75789000       0.06676000
   155  C          0.11135000       0.74211000       0.56676000
   156  C          0.38865000       0.24211000       0.93324000
   157  C          0.84234000       0.29428000       0.37295000
   158  C          0.65766000       0.79428000       0.12705000
   159  C          0.15766000       0.70572000       0.62705000
   160  C          0.34234000       0.20572000       0.87295000
   161  C          0.83154000       0.17821000       0.32264000
   162  C          0.66846000       0.67821000       0.17736000
   163  C          0.16846000       0.82179000       0.67736000
   164  C          0.33154000       0.32179000       0.82264000
   165  H          0.80054400       0.20260800       0.28226400
   166  H          0.69945600       0.70260800       0.21773600
   167  H          0.19945600       0.79739200       0.71773600
   168  H          0.30054400       0.29739200       0.78226400
   169  C          0.86715000       0.02589000       0.33264000
   170  C          0.63285000       0.52589000       0.16736000
   171  C          0.13285000       0.97411000       0.66736000
   172  C          0.36715000       0.47411000       0.83264000
   173  H          0.85995700       0.94816800       0.29886800
   174  H          0.64004300       0.44816800       0.20113200
   175  H          0.14004300       0.05183200       0.70113200
   176  H          0.35995700       0.55183200       0.79886800
   177  C          0.91355000      -0.01078000       0.39285000
   178  C          0.58645000       0.48922000       0.10715000
   179  C          0.08645000       0.01078000       0.60715000
   180  C          0.41355000       0.51078000       0.89285000
   181  H          0.93727400       0.88733700       0.39950200
   182  H          0.56272600       0.38733700       0.10049800
   183  H          0.06272600       0.11266300       0.60049800
   184  H          0.43727400       0.61266300       0.89950200
   185  S          0.79594000       0.48837000       0.36254000
   186  S          0.70406000      -0.01163000       0.13746000
   187  S          0.20406000       0.51163000       0.63746000
   188  S          0.29594000       0.01163000       0.86254000
   189  O          0.92647000       0.64041400       0.58417000
   190  O          0.57353000       0.14041400       0.91583000
   191  O          0.07353000       0.35958600       0.41583000
   192  O          0.42647000       0.85958600       0.08417000
   193  N          0.76867000      -0.01578600       0.57427000
   194  N          0.73133000       0.48421400       0.92573000
   195  N          0.23133000       0.01578600       0.42573000
   196  N          0.26867000       0.51578600       0.07427000
   197  C          0.82847000       0.92001400       0.56827000
   198  C          0.67153000       0.42001400       0.93173000
   199  C          0.17153000       0.07998600       0.43173000
   200  C          0.32847000       0.57998600       0.06827000
   201  O          0.96147000       0.37031600       0.53678000
   202  O          0.53853000       0.87031600       0.96322000
   203  O          0.03853000       0.62968400       0.46322000
   204  O          0.46147000       0.12968400       0.03678000
   205  H          0.96730000       0.47213000       0.56850000
   206  H          0.53270000       0.97213000       0.93150000
   207  H          0.03270000       0.52787000       0.43150000
   208  H          0.46730000       0.02787000       0.06850000
   209  N          0.82536000       0.77841200       0.53287000
   210  N          0.67464000       0.27841200       0.96713000
   211  N          0.17464000       0.22158800       0.46713000
   212  N          0.32536000       0.72158800       0.03287000
   213  H          0.78718800       0.76950900       0.50152300
   214  H          0.71281200       0.26950900      -0.00152300
   215  H          0.21281200       0.23049100       0.49847700
   216  H          0.28718800       0.73049100       0.00152300
   217  C          0.76749000       0.12501500       0.60767000
   218  C          0.73251000       0.62501500       0.89233000
   219  C          0.23251000       0.87498500       0.39233000
   220  C          0.26749000       0.37498500       0.10767000
   221  H          0.72382400       0.16745700       0.60889800
   222  H          0.77617600       0.66745700       0.89110200
   223  H          0.27617600       0.83254300       0.39110200
   224  H          0.22382400       0.33254300       0.10889800
   225  O          0.72478000       0.46681600       0.31978000
   226  O          0.77522000       0.96681600       0.18022000
   227  O          0.27522000       0.53318400       0.68022000
   228  O          0.22478000       0.03318400       0.81978000
   229  N          0.78826000       0.52221400       0.43877000
   230  N          0.71174000       0.02221400       0.06123000
   231  N          0.21174000       0.47778600       0.56123000
   232  N          0.28826000       0.97778600       0.93877000
   233  C          0.82811000       0.21181700       0.64079000
   234  C          0.67189000       0.71181700       0.85921000
   235  C          0.17189000       0.78818300       0.35921000
   236  C          0.32811000       0.28818300       0.14079000
   237  H          0.82603300       0.31017800       0.66355700
   238  H          0.67396700       0.81017800       0.83644300
   239  H          0.17396700       0.68982200       0.33644300
   240  H          0.32603300       0.18982200       0.16355700
   241  O          0.84189000       0.61541600       0.34978000
   242  O          0.65811000       0.11541600       0.15022000
   243  O          0.15811000       0.38458400       0.65022000
   244  O          0.34189000       0.88458400       0.84978000
   245  C          0.89151000       0.14281800       0.63761000
   246  C          0.60849000       0.64281800       0.86239000
   247  C          0.10849000       0.85718200       0.36239000
   248  C          0.39151000       0.35718200       0.13761000
   249  H          0.93357200       0.19646800       0.65826700
   250  H          0.56642800       0.69646800       0.84173300
   251  H          0.06642800       0.80353200       0.34173300
   252  H          0.43357200       0.30353200       0.15826700
   253  C          0.89328000      -0.00658200       0.60368000
   254  C          0.60672000       0.49341800       0.89632000
   255  C          0.10672000       0.00658200       0.39632000
   256  C          0.39328000       0.50658200       0.10368000
   257  H          0.93598600       0.94307900       0.60425300
   258  H          0.56401400       0.44307900       0.89574700
   259  H          0.06401400       0.05692100       0.39574700
   260  H          0.43598600       0.55692100       0.10425300
   261  C          0.87057000       0.64661500       0.53687000
   262  C          0.62943000       0.14661500       0.96313000
   263  C          0.12943000       0.35338500       0.46313000
   264  C          0.37057000       0.85338500       0.03687000
   265  C          0.85087000       0.51341400       0.48838000
   266  C          0.64913000       0.01341400       0.01162000
   267  C          0.14913000       0.48658600       0.51162000
   268  C          0.35087000      -0.01341400       0.98838000
   269  C          0.90277000       0.38761400       0.48878000
   270  C          0.59723000       0.88761400       0.01122000
   271  C          0.09723000       0.61238600       0.51122000
   272  C          0.40277000       0.11238600       0.98878000
   273  C          0.72789000       0.43120000       0.45281100
   274  C          0.77211000       0.93120000       0.04718900
   275  C          0.27211000       0.56880000       0.54718900
   276  C          0.22789000       0.06880000       0.95281100
   277  H          0.68598800       0.44742800       0.41755400
   278  H          0.81401200       0.94742800       0.08244600
   279  H          0.31401200       0.55257200       0.58244600
   280  H          0.18598800       0.05257200       0.91755400
   281  H          0.72008400       0.47248400       0.49237200
   282  H          0.77991600       0.97248400       0.00762800
   283  H          0.27991600       0.52751600       0.50762800
   284  H          0.22008400       0.02751600       0.99237200
   285  H          0.73840700       0.31290000       0.45733000
   286  H          0.76159300       0.81290000       0.04267000
   287  H          0.26159300       0.68710000       0.54267000
   288  H          0.23840700       0.18710000       0.95733000
