data_BIYSEH06
_symmetry_space_group_name_H-M    'P1'
_symmetry_Int_Tables_number       1
loop_
_symmetry_equiv_pos_site_id
_symmetry_equiv_pos_as_xyz
1 x,y,z
_cell_length_a                   17.58774
_cell_length_b                   11.85923
_cell_length_c                   6.938401
_cell_angle_alpha                90.0
_cell_angle_beta                 97.56149
_cell_angle_gamma                90.0
loop_
_atom_site_label
_atom_site_type_symbol
_atom_site_fract_x
_atom_site_fract_y
_atom_site_fract_z
     1  S          0.69947400       0.94635400       0.37646100
     2  S          0.30052600       0.44635400       0.12353900
     3  S          0.30052600       0.05364600       0.62353900
     4  S          0.69947400       0.55364600       0.87646100
     5  O          0.69472130       0.82875830       0.33224000
     6  O          0.30527870       0.32875830       0.16776000
     7  O          0.30527870       0.17124170       0.66776000
     8  O          0.69472130       0.67124170       0.83224000
     9  O          0.72373130       0.98140820       0.57223000
    10  O          0.27626870       0.48140820       0.92777000
    11  O          0.27626870       0.01859180       0.42777000
    12  O          0.72373130       0.51859180       0.07223000
    13  O          0.82691120       0.29534170       0.23914000
    14  O          0.17308880       0.79534170       0.26086000
    15  O          0.17308880       0.70465830       0.76086000
    16  O          0.82691120       0.20465830       0.73914000
    17  O          0.68076130       0.29695170       0.23554000
    18  O          0.31923870       0.79695170       0.26446000
    19  O          0.31923870       0.70304830       0.76446000
    20  O          0.68076130       0.20304830       0.73554000
    21  N          0.75642130       0.00656180       0.23673000
    22  N          0.24357870       0.50656180       0.26327000
    23  N          0.24357870      -0.00656180       0.76327000
    24  N          0.75642130       0.49343820       0.73673000
    25  N          0.89047140       0.12682000       0.27314000
    26  N          0.10952860       0.62682000       0.22686000
    27  N          0.10952860       0.87318000       0.72686000
    28  N          0.89047140       0.37318000       0.77314000
    29  N          0.01355140       0.06632000       0.28394000
    30  N          0.98644860       0.56632000       0.21606000
    31  N          0.98644860       0.93368000       0.71606000
    32  N          0.01355140       0.43368000       0.78394000
    33  C          0.75401160       0.12872000       0.24554000
    34  C          0.24598840       0.62872000       0.25446000
    35  C          0.24598840       0.87128000       0.75446000
    36  C          0.75401160       0.37128000       0.74554000
    37  C          0.68660160       0.18422000       0.23954000
    38  C          0.31339840       0.68422000       0.26046000
    39  C          0.31339840       0.81578000       0.76046000
    40  C          0.68660160       0.31578000       0.73954000
    41  C          0.61306160       0.12482000       0.23924000
    42  C          0.38693840       0.62482000       0.26076000
    43  C          0.38693840       0.87518000       0.76076000
    44  C          0.61306160       0.37518000       0.73924000
    45  C          0.54329180       0.17933000       0.18265000
    46  C          0.45670820       0.67933000       0.31735000
    47  C          0.45670820       0.82067000       0.81735000
    48  C          0.54329180       0.32067000       0.68265000
    49  C          0.47460180       0.12263000       0.18565000
    50  C          0.52539820       0.62263000       0.31435000
    51  C          0.52539820       0.87737000       0.81435000
    52  C          0.47460180       0.37737000       0.68565000
    53  C          0.47413190       0.01013000       0.23875000
    54  C          0.52586810       0.51013000       0.26125000
    55  C          0.52586810      -0.01013000       0.76125000
    56  C          0.47413190       0.48987000       0.73875000
    57  C          0.54256170       0.95407000       0.29215000
    58  C          0.45743830       0.45407000       0.20785000
    59  C          0.45743830       0.04593000       0.70785000
    60  C          0.54256170       0.54593000       0.79215000
    61  C          0.61111150       0.01192000       0.29454000
    62  C          0.38888850       0.51192000       0.20546000
    63  C          0.38888850       0.98808000       0.70546000
    64  C          0.61111150       0.48808000       0.79454000
    65  C          0.82676160       0.19052000       0.25284000
    66  C          0.17323840       0.69052000       0.24716000
    67  C          0.17323840       0.80948000       0.74716000
    68  C          0.82676160       0.30948000       0.75284000
    69  C          0.96818160       0.15662000       0.27554000
    70  C          0.03181840       0.65662000       0.22446000
    71  C          0.03181840       0.84338000       0.72446000
    72  C          0.96818160       0.34338000       0.77554000
    73  C          0.08924170       0.08463000       0.29025000
    74  C          0.91075830       0.58463000       0.20975000
    75  C          0.91075830       0.91537000       0.70975000
    76  C          0.08924170       0.41537000       0.79025000
    77  C          0.12050180       0.19063000       0.28545000
    78  C          0.87949820       0.69063000       0.21455000
    79  C          0.87949820       0.80937000       0.71455000
    80  C          0.12050180       0.30937000       0.78545000
    81  C          0.07210180       0.28223000       0.27485000
    82  C          0.92789820       0.78223000       0.22515000
    83  C          0.92789820       0.71777000       0.72515000
    84  C          0.07210180       0.21777000       0.77485000
    85  C         -0.00621830       0.26673000       0.27045000
    86  C          0.00621830       0.76673000       0.22955000
    87  C          0.00621830       0.73327000       0.72955000
    88  C         -0.00621830       0.23327000       0.77045000
    89  C          0.75192000       0.96177000       0.03605000
    90  C          0.24808000       0.46177000       0.46395000
    91  C          0.24808000       0.03823000       0.96395000
    92  C          0.75192000       0.53823000       0.53605000
    93  H          0.88051900       0.06030000       0.28250000
    94  H          0.11948100       0.56030000       0.21750000
    95  H          0.11948100       0.93970000       0.71750000
    96  H          0.88051900       0.43970000       0.78250000
    97  H          0.54320000       0.25840000       0.13360000
    98  H          0.45680000       0.75840000       0.36640000
    99  H          0.45680000       0.74160000       0.86640000
   100  H          0.54320000       0.24160000       0.63360000
   101  H          0.42620000       0.16330000       0.14950000
   102  H          0.57380000       0.66330000       0.35050000
   103  H          0.57380000       0.83670000       0.85050000
   104  H          0.42620000       0.33670000       0.64950000
   105  H          0.42920000       0.97370000       0.24150000
   106  H          0.57080000       0.47370000       0.25850000
   107  H          0.57080000       0.02630000       0.75850000
   108  H          0.42920000       0.52630000       0.74150000
   109  H          0.54420000       0.87660000       0.32850000
   110  H          0.45580000       0.37660000       0.17150000
   111  H          0.45580000       0.12340000       0.67150000
   112  H          0.54420000       0.62340000       0.82850000
   113  H          0.11930000       0.01440000       0.30060000
   114  H          0.88070000       0.51440000       0.19940000
   115  H          0.88070000       0.98560000       0.69940000
   116  H          0.11930000       0.48560000       0.80060000
   117  H          0.17430000       0.19940000       0.29560000
   118  H          0.82570000       0.69940000       0.20440000
   119  H          0.82570000       0.80060000       0.70440000
   120  H          0.17430000       0.30060000       0.79560000
   121  H          0.09130000       0.36540000       0.28970000
   122  H          0.90870000       0.86540000       0.21030000
   123  H          0.90870000       0.63460000       0.71030000
   124  H          0.09130000       0.13460000       0.78970000
   125  H          0.96120000       0.32940000       0.25450000
   126  H          0.03880000       0.82940000       0.24550000
   127  H          0.03880000       0.67060000       0.74550000
   128  H          0.96120000       0.17060000       0.75450000
   129  H          0.72740000       0.31950000       0.21080000
   130  H          0.27260000       0.81950000       0.28920000
   131  H          0.27260000       0.68050000       0.78920000
   132  H          0.72740000       0.18050000       0.71080000
   133  H          0.71020000       0.89860000       0.01550000
   134  H          0.28980000       0.39860000       0.48450000
   135  H          0.28980000       0.10140000      -0.01550000
   136  H          0.71020000       0.60140000       0.51550000
   137  H          0.80230000       0.92660000       0.01560000
   138  H          0.19770000       0.42660000       0.48440000
   139  H          0.19770000       0.07340000      -0.01560000
   140  H          0.80230000       0.57340000       0.51560000
   141  H          0.73830000       0.02740000       0.93630000
   142  H          0.26170000       0.52740000       0.56370000
   143  H          0.26170000       0.97260000       0.06370000
   144  H          0.73830000       0.47260000       0.43630000
