data_BIZJUP03
_symmetry_space_group_name_H-M    'P1'
_symmetry_Int_Tables_number       1
loop_
_symmetry_equiv_pos_site_id
_symmetry_equiv_pos_as_xyz
1 x,y,z
_cell_length_a                   4.98874
_cell_length_b                   6.78237
_cell_length_c                   16.04816
_cell_angle_alpha                90.0
_cell_angle_beta                 96.002
_cell_angle_gamma                90.0
loop_
_atom_site_label
_atom_site_type_symbol
_atom_site_fract_x
_atom_site_fract_y
_atom_site_fract_z
     1  O          0.52341100       0.73088000       0.83498000
     2  O          0.47658900       0.23088000       0.66502000
     3  O          0.47658900       0.26912000       0.16502000
     4  O          0.52341100       0.76912000       0.33498000
     5  O          0.84821300       0.57999000       0.60801100
     6  O          0.15178700       0.07999000       0.89198900
     7  O          0.15178700       0.42001000       0.39198900
     8  O          0.84821300       0.92001000       0.10801100
     9  O          0.55441100       0.69858000       0.68839000
    10  O          0.44558900       0.19858000       0.81161000
    11  O          0.44558900       0.30142000       0.31161000
    12  O          0.55441100       0.80142000       0.18839000
    13  H          0.53781000       0.71160000       0.76251000
    14  H          0.46219000       0.21160000       0.73749000
    15  H          0.46219000       0.28840000       0.23749000
    16  H          0.53781000       0.78840000       0.26251000
    17  C          0.72781300       0.64359000       0.87601300
    18  C          0.27218700       0.14359000       0.62398700
    19  C          0.27218700       0.35641000       0.12398700
    20  C          0.72781300       0.85641000       0.37601300
    21  C          0.96201400       0.54529000       0.74941400
    22  C          0.03798600       0.04529000       0.75058600
    23  C          0.03798600       0.45471000       0.25058600
    24  C          0.96201400       0.95471000       0.24941400
    25  H          0.11977600       0.48577800       0.73591400
    26  H          0.88022400      -0.01422200       0.76408600
    27  H          0.88022400       0.51422200       0.26408600
    28  H          0.11977600       0.01422200       0.23591400
    29  C          0.77651500       0.61001000       0.67501300
    30  C          0.22348500       0.11001000       0.82498700
    31  C          0.22348500       0.38999000       0.32498700
    32  C          0.77651500       0.88999000       0.17501300
    33  C          0.94221400       0.55719000       0.83121400
    34  C          0.05778600       0.05719000       0.66878600
    35  C          0.05778600       0.44281000       0.16878600
    36  C          0.94221400       0.94281000       0.33121400
    37  H          0.08557200       0.50263500       0.86520900
    38  H          0.91442800       0.00263500       0.63479100
    39  H          0.91442800       0.49736500       0.13479100
    40  H          0.08557200      -0.00263500       0.36520900
    41  O          0.74941100       0.63189000       0.95471200
    42  O          0.25058900       0.13189000       0.54528800
    43  O          0.25058900       0.36811000       0.04528800
    44  O          0.74941100       0.86811000       0.45471200
    45  H          0.45644000       0.77748800       0.51401400
    46  H          0.54356000       0.27748800       0.98598600
    47  H          0.54356000       0.22251200       0.48598600
    48  H          0.45644000       0.72251200       0.01401400
    49  N          0.28641200       0.70769000       0.51701100
    50  N          0.71358800       0.20769000       0.98298900
    51  N          0.71358800       0.29231000       0.48298900
    52  N          0.28641200       0.79231000       0.01701100
    53  H          0.22367200       0.60511600       0.47774000
    54  H          0.77632800       0.10511600       0.02226000
    55  H          0.77632800       0.39488400       0.52226000
    56  H          0.22367200       0.89488400       0.97774000
    57  H          0.13835600       0.80168000       0.50996400
    58  H          0.86164400       0.30168000       0.99003600
    59  H          0.86164400       0.19832000       0.49003600
    60  H          0.13835600       0.69832000       0.00996400
    61  H          0.30097200       0.65193300       0.57233000
    62  H          0.69902800       0.15193300       0.92767000
    63  H          0.69902800       0.34806700       0.42767000
    64  H          0.30097200       0.84806700       0.07233000
