data_BIZJUP04
_symmetry_space_group_name_H-M    'P1'
_symmetry_Int_Tables_number       1
loop_
_symmetry_equiv_pos_site_id
_symmetry_equiv_pos_as_xyz
1 x,y,z
_cell_length_a                   9.03512
_cell_length_b                   6.26715
_cell_length_c                   10.043
_cell_angle_alpha                90.0
_cell_angle_beta                 116.14
_cell_angle_gamma                90.0
loop_
_atom_site_label
_atom_site_type_symbol
_atom_site_fract_x
_atom_site_fract_y
_atom_site_fract_z
     1  O          0.02731500       0.28959000       0.41641300
     2  O          0.47268500       0.78959000       0.08358700
     3  O          0.97268500       0.71041000       0.58358700
     4  O          0.52731500       0.21041000       0.91641300
     5  O          0.87968500       0.21789000       0.55861400
     6  O          0.62031500       0.71789000       0.94138600
     7  O          0.12031500       0.78211000       0.44138600
     8  O          0.37968500       0.28211000       0.05861400
     9  H          0.96384000       0.25800000       0.49916000
    10  H          0.53616000       0.75800000       0.00084000
    11  H          0.03616000       0.74200000       0.50084000
    12  H          0.46384000       0.24200000      -0.00084000
    13  O          0.97088500       0.42098900       0.19591500
    14  O          0.52911500       0.92098900       0.30408500
    15  O          0.02911500       0.57901100       0.80408500
    16  O          0.47088500       0.07901100       0.69591500
    17  O          0.64868200       0.33028800       0.56581700
    18  O          0.85131800       0.83028800       0.93418300
    19  O          0.35131800       0.66971200       0.43418300
    20  O          0.14868200       0.16971200       0.06581700
    21  C          0.92608200       0.37508700       0.29151800
    22  C          0.57391800       0.87508700       0.20848200
    23  C          0.07391800       0.62491300       0.70848200
    24  C          0.42608200       0.12491300       0.79151800
    25  C          0.75288200       0.41418800       0.26101800
    26  C          0.74711800       0.91418800       0.23898200
    27  C          0.24711800       0.58581200       0.73898200
    28  C          0.25288200       0.08581200       0.76101800
    29  H          0.68553700       0.45816500       0.16458800
    30  H          0.81446300       0.95816500       0.33541200
    31  H          0.31446300       0.54183500       0.83541200
    32  H          0.18553700       0.04183500       0.66458800
    33  C          0.67498100       0.39718800       0.34931900
    34  C          0.82501900       0.89718800       0.15068100
    35  C          0.32501900       0.60281200       0.65068100
    36  C          0.17498100       0.10281200       0.84931900
    37  H          0.56673700       0.44605200       0.30821300
    38  H          0.93326300       0.94605200       0.19178700
    39  H          0.43326300       0.55394800       0.69178700
    40  H          0.06673700       0.05394800       0.80821300
    41  C          0.73780000       0.31308800       0.49941800
    42  C          0.76220000       0.81308800       0.00058200
    43  C          0.26220000       0.68691200       0.50058200
    44  C          0.23780000       0.18691200      -0.00058200
    45  N          0.31420000       0.17748700       0.37331500
    46  N          0.18580000       0.67748700       0.12668500
    47  N          0.68580000       0.82251300       0.62668500
    48  N          0.81420000       0.32251300       0.87331500
    49  H          0.23666000       0.22390400       0.29632400
    50  H          0.26334000       0.72390400       0.20367600
    51  H          0.76334000       0.77609600       0.70367600
    52  H          0.73666000       0.27609600       0.79632400
    53  H          0.28441700       0.17867600       0.43781300
    54  H          0.21558300       0.67867600       0.06218700
    55  H          0.71558300       0.82132400       0.56218700
    56  H          0.78441700       0.32132400       0.93781300
    57  H          0.32493500       0.04943100       0.35862200
    58  H          0.17506500       0.54943100       0.14137800
    59  H          0.67506500       0.95056900       0.64137800
    60  H          0.82493500       0.45056900       0.85862200
    61  H          0.40424600       0.22410700       0.39634600
    62  H          0.09575400       0.72410700       0.10365400
    63  H          0.59575400       0.77589300       0.60365400
    64  H          0.90424600       0.27589300       0.89634600
