data_BIZJUP
_symmetry_space_group_name_H-M    'P1'
_symmetry_Int_Tables_number       1
loop_
_symmetry_equiv_pos_site_id
_symmetry_equiv_pos_as_xyz
1 x,y,z
_cell_length_a                   4.6161
_cell_length_b                   8.0852
_cell_length_c                   16.4105
_cell_angle_alpha                90.0
_cell_angle_beta                 90.0
_cell_angle_gamma                90.0
loop_
_atom_site_label
_atom_site_type_symbol
_atom_site_fract_x
_atom_site_fract_y
_atom_site_fract_z
     1  N          0.72210000       0.25000000       0.00000000
     2  N          0.27790000       0.75000000       0.50000000
     3  N          0.27790000       0.75000000      -0.00000000
     4  N          0.72210000       0.25000000       0.50000000
     5  H          0.62500000       0.26900000       0.04300000
     6  H          0.37500000       0.73100000       0.54300000
     7  H          0.62500000       0.23100000       0.95700000
     8  H          0.37500000       0.76900000       0.45700000
     9  H          0.37500000       0.73100000       0.95700000
    10  H          0.62500000       0.26900000       0.45700000
    11  H          0.37500000       0.76900000       0.04300000
    12  H          0.62500000       0.23100000       0.54300000
    13  H          0.84600000       0.32800000       0.98600000
    14  H          0.15400000       0.67200000       0.48600000
    15  H          0.84600000       0.17200000       0.01400000
    16  H          0.15400000       0.82800000       0.51400000
    17  H          0.15400000       0.67200000       0.01400000
    18  H          0.84600000       0.32800000       0.51400000
    19  H          0.15400000       0.82800000       0.98600000
    20  H          0.84600000       0.17200000       0.48600000
    21  O          0.46630000       0.30140000       0.17590000
    22  O          0.53370000       0.69860000       0.67590000
    23  O          0.46630000       0.19860000       0.82410000
    24  O          0.53370000       0.80140000       0.32410000
    25  O          0.53370000       0.69860000       0.82410000
    26  O          0.46630000       0.30140000       0.32410000
    27  O          0.53370000       0.80140000       0.17590000
    28  O          0.46630000       0.19860000       0.67590000
    29  O          0.22960000       0.42340000       0.07620000
    30  O          0.77040000       0.57660000       0.57620000
    31  O          0.22960000       0.07660000       0.92380000
    32  O          0.77040000       0.92340000       0.42380000
    33  O          0.77040000       0.57660000       0.92380000
    34  O          0.22960000       0.42340000       0.42380000
    35  O          0.77040000       0.92340000       0.07620000
    36  O          0.22960000       0.07660000       0.57620000
    37  C          0.27300000       0.40160000       0.15020000
    38  C          0.72700000       0.59840000       0.65020000
    39  C          0.27300000       0.09840000       0.84980000
    40  C          0.72700000       0.90160000       0.34980000
    41  C          0.72700000       0.59840000       0.84980000
    42  C          0.27300000       0.40160000       0.34980000
    43  C          0.72700000       0.90160000       0.15020000
    44  C          0.27300000       0.09840000       0.65020000
    45  C          0.08870000       0.49340000       0.20950000
    46  C          0.91130000       0.50660000       0.70950000
    47  C          0.08870000       0.00660000       0.79050000
    48  C          0.91130000      -0.00660000       0.29050000
    49  C          0.91130000       0.50660000       0.79050000
    50  C          0.08870000       0.49340000       0.29050000
    51  C          0.91130000      -0.00660000       0.20950000
    52  C          0.08870000       0.00660000       0.70950000
    53  H          0.48000000       0.30200000       0.25000000
    54  H          0.52000000       0.69800000       0.75000000
    55  H          0.48000000       0.19800000       0.75000000
    56  H          0.52000000       0.80200000       0.25000000
    57  H          0.94000000       0.56100000       0.18600000
    58  H          0.06000000       0.43900000       0.68600000
    59  H          0.94000000       0.93900000       0.81400000
    60  H          0.06000000       0.06100000       0.31400000
    61  H          0.06000000       0.43900000       0.81400000
    62  H          0.94000000       0.56100000       0.31400000
    63  H          0.06000000       0.06100000       0.18600000
    64  H          0.94000000       0.93900000       0.68600000
