data_BOKTEE02
_symmetry_space_group_name_H-M    'P1'
_symmetry_Int_Tables_number       1
loop_
_symmetry_equiv_pos_site_id
_symmetry_equiv_pos_as_xyz
1 x,y,z
_cell_length_a                   8.181
_cell_length_b                   17.352
_cell_length_c                   23.17
_cell_angle_alpha                90.0
_cell_angle_beta                 921.0
_cell_angle_gamma                90.0
loop_
_atom_site_label
_atom_site_type_symbol
_atom_site_fract_x
_atom_site_fract_y
_atom_site_fract_z
     1  Br         0.92940000      -0.00306000       0.35764400
     2  Br         0.42940000       0.00306000       0.35764400
     3  Cl         0.74341300       0.69515000       0.70488000
     4  Cl         0.24341300       0.30485000       0.70488000
     5  N          0.74211900       0.79787000       0.41757000
     6  N          0.24211900       0.20213000       0.41757000
     7  N          0.01420000       0.98771100       0.52491000
     8  N          0.51420000       0.01228900       0.52491000
     9  O          0.76491600       0.66879000       0.41201300
    10  O          0.26491600       0.33121000       0.41201300
    11  F          0.80120000       0.87189000       0.27329000
    12  F          0.30120000       0.12811000       0.27329000
    13  F          0.57320000       0.82669000       0.29809000
    14  F          0.07320000       0.17331000       0.29809000
    15  F          0.77920000       0.75561000       0.29939000
    16  F          0.27920000       0.24439000       0.29939000
    17  C          0.74571900       0.73076000       0.63548000
    18  C          0.24571900       0.26924000       0.63548000
    19  C          0.80620000       0.68637000       0.59229000
    20  C          0.30620000       0.31363000       0.59229000
    21  C          0.81320000       0.71588000       0.53578000
    22  C          0.31320000       0.28412000       0.53578000
    23  C          0.77041700       0.79267000       0.52498000
    24  C          0.27041700       0.20733000       0.52498000
    25  C          0.72920000       0.83847000       0.56959000
    26  C          0.22920000       0.16153000       0.56959000
    27  C          0.71320000       0.80738000       0.62539000
    28  C          0.21320000       0.19262000       0.62539000
    29  C          0.80161700       0.82777000       0.46757000
    30  C          0.30161700       0.17223000       0.46757000
    31  C          0.87120000       0.90127000       0.45416000
    32  C          0.37120000       0.09873000       0.45416000
    33  C          0.85020000       0.91277000       0.39784000
    34  C          0.35020000       0.08723000       0.39784000
    35  C          0.77051900       0.84616000       0.37396000
    36  C          0.27051900       0.15384000       0.37396000
    37  C         -0.05080000       0.94841000       0.49318000
    38  C          0.44920000       0.05159000       0.49318000
    39  C          0.73121300       0.82515000       0.31248000
    40  C          0.23121300       0.17485000       0.31248000
    41  C          0.65321600       0.72648000       0.41168000
    42  C          0.15321600       0.27352000       0.41168000
    43  C          0.68931700       0.59589000       0.40451200
    44  C          0.18931700       0.40411000       0.40451200
    45  C          0.81620000       0.53778000       0.38921300
    46  C          0.31620000       0.46222000       0.38921300
    47  H          0.84929700       0.62861600       0.60148800
    48  H          0.34929700       0.37138400       0.60148800
    49  H          0.85114200       0.67928400       0.50073500
    50  H          0.35114200       0.32071600       0.50073500
    51  H          0.70862100       0.89918700       0.56226700
    52  H          0.20862100       0.10081300       0.56226700
    53  H          0.67563100       0.84371800       0.66030400
    54  H          0.17563100       0.15628200       0.66030400
    55  H          0.57471000       0.71958500       0.44791400
    56  H          0.07471000       0.28041500       0.44791400
    57  H          0.58405500       0.72605500       0.37095000
    58  H          0.08405500       0.27394500       0.37095000
    59  H          0.59706300       0.59908300       0.36998000
    60  H          0.09706300       0.40091700       0.36998000
    61  H          0.63395000       0.57883500       0.44431400
    62  H          0.13395000       0.42116500       0.44431400
    63  H          0.75947100       0.48192700       0.38337600
    64  H          0.25947100       0.51807300       0.38337600
    65  H          0.87198500       0.55480000       0.34944400
    66  H          0.37198500       0.44520000       0.34944400
    67  H          0.90877500       0.53460600       0.42358300
    68  H          0.40877500       0.46539400       0.42358300
    69  Br         0.47851000       0.50494000       0.69665000
    70  Br        -0.02149000       0.49506000       0.69665000
    71  Cl         0.20051300       0.80435000       0.35208000
    72  Cl         0.70051300       0.19565000       0.35208000
    73  N          0.27061700       0.70046000       0.64107000
    74  N          0.77061700       0.29954000       0.64107000
    75  N          0.50320000       0.51229000       0.53001100
    76  N          0.00320000       0.48771000       0.53001100
    77  O          0.28611500       0.83228000       0.64961200
    78  O          0.78611500       0.16772000       0.64961200
    79  F          0.36520000       0.62459000       0.78249000
    80  F          0.86520000       0.37541000       0.78249000
    81  F          0.14120000       0.66398000       0.75829000
    82  F          0.64120000       0.33602000       0.75829000
    83  F          0.32021900       0.73611000       0.75729000
    84  F          0.82021900       0.26389000       0.75729000
    85  C          0.22320000       0.76736000       0.42638000
    86  C          0.72320000       0.23264000       0.42638000
    87  C          0.28920000       0.81147000       0.46809000
    88  C          0.78920000       0.18853000       0.46809000
    89  C          0.31541900       0.78038000       0.52538000
    90  C          0.81541900       0.21962000       0.52538000
    91  C          0.27671500       0.70406000       0.53587000
    92  C          0.77671500       0.29594000       0.53587000
    93  C          0.23321900       0.65826000       0.49149000
    94  C          0.73321900       0.34174000       0.49149000
    95  C          0.19001800       0.68938000       0.43819000
    96  C          0.69001800       0.31062000       0.43819000
    97  C          0.31941600       0.67086000       0.58987000
    98  C          0.81941600       0.32914000       0.58987000
    99  C          0.39281900       0.59917000       0.60237000
   100  C          0.89281900       0.40083000       0.60237000
   101  C          0.39961800       0.59016000       0.65936000
   102  C          0.89961800       0.40984000       0.65936000
   103  C          0.30621600       0.65066000       0.68346000
   104  C          0.80621600       0.34934000       0.68346000
   105  C          0.45620000       0.54998000       0.56129000
   106  C         -0.04380000       0.45002000       0.56129000
   107  C          0.27991200       0.66955000       0.74447000
   108  C          0.77991200       0.33045000       0.74447000
   109  C          0.17731500       0.77448000       0.64808000
   110  C          0.67731500       0.22552000       0.64808000
   111  C          0.20871600       0.90438000       0.65501100
   112  C          0.70871600       0.09562000       0.65501100
   113  C          0.34220000       0.96938000       0.65581200
   114  C          0.84220000       0.03062000       0.65581200
   115  H          0.32275700       0.87029300       0.45883500
   116  H          0.82275700       0.12970700       0.45883500
   117  H          0.36486400       0.81625900       0.55980200
   118  H          0.86486400       0.18374100       0.55980200
   119  H          0.23193300       0.59643800       0.49724200
   120  H          0.73193300       0.40356200       0.49724200
   121  H          0.13042000       0.65379500       0.40524300
   122  H          0.63042000       0.34620500       0.40524300
   123  H          0.09313200       0.78212500       0.61140000
   124  H          0.59313200       0.21787500       0.61140000
   125  H          0.11383400       0.77290900       0.68819100
   126  H          0.61383400       0.22709100       0.68819100
   127  H          0.14402000       0.90590900       0.69495600
   128  H          0.64402000       0.09409100       0.69495600
   129  H          0.12421300       0.91311800       0.61861900
   130  H          0.62421300       0.08688200       0.61861900
   131  H          0.28389800       0.02476900       0.65991500
   132  H          0.78389800       0.97523100       0.65991500
   133  H          0.42693200       0.96026400       0.69200400
   134  H          0.92693200       0.03973600       0.69200400
   135  H          0.40719200       0.96744800       0.61592500
   136  H          0.90719200       0.03255200       0.61592500
   137  Br         0.88938700       0.06465000       0.82657000
   138  Br         0.38938700       0.93535000       0.82657000
   139  Cl         0.25641700       0.89587000       0.21201000
   140  Cl         0.75641700       0.10413000       0.21201000
   141  N         -0.02520000       0.88098000       0.93129000
   142  N          0.47480000       0.11902000       0.93129000
   143  N          0.09540000       0.12831400       0.97721100
   144  N          0.59540000       0.87168600       0.97721100
   145  O          0.12730000       0.76541200       0.95871100
   146  O          0.62730000       0.23458800       0.95871100
   147  F          0.83270000       0.90061000       0.78411200
   148  F          0.33270000       0.09939000       0.78411200
   149  F          0.74670000       0.82231300       0.83861200
   150  F          0.24670000       0.17768700       0.83861200
   151  F         -0.02730000       0.81851300       0.81501200
   152  F          0.47270000       0.18148700       0.81501200
   153  C          0.19120000       0.90601100       0.14329000
   154  C          0.69120000       0.09398900       0.14329000
   155  C          0.25830000       0.86631200       0.10291100
   156  C          0.75830000       0.13368800       0.10291100
   157  C          0.20430000       0.87631200       0.04301000
   158  C          0.70430000       0.12368800       0.04301000
   159  C          0.08120000       0.92461000       0.02999000
   160  C          0.58120000       0.07539000       0.02999000
   161  C          0.01120000       0.96451100       0.07241100
   162  C          0.51120000       0.03548900       0.07241100
   163  C          0.05520000       0.94911100       0.13001000
   164  C          0.55520000       0.05088900       0.13001000
   165  C          0.03220000       0.93908000       0.96848000
   166  C          0.53220000       0.06092000       0.96848000
   167  C          0.01730000       0.00588000       0.93959000
   168  C          0.51730000      -0.00588000       0.93959000
   169  C         -0.05130000       0.98967000       0.88349000
   170  C          0.44870000       0.01033000       0.88349000
   171  C          0.92570000       0.91197000       0.87988000
   172  C          0.42570000       0.08803000       0.87988000
   173  C          0.06030000       0.07291300       0.96041000
   174  C          0.56030000       0.92708700       0.96041000
   175  C          0.87118200       0.86307000       0.82959000
   176  C          0.37118200       0.13693000       0.82959000
   177  C         -0.04320000       0.79771100       0.94731000
   178  C          0.45680000       0.20228900       0.94731000
   179  C          0.16230000       0.70631300       0.91931200
   180  C          0.66230000       0.29368700       0.91931200
   181  C          0.34530000       0.67891400       0.93131600
   182  C          0.84530000       0.32108600       0.93131600
   183  H          0.35481000       0.82585400       0.11394100
   184  H          0.85481000       0.17414600       0.11394100
   185  H          0.26216100       0.84468900       0.00908200
   186  H          0.76216100       0.15531100       0.00908200
   187  H          0.92106500       0.00828400       0.06180800
   188  H          0.42106500       0.99171600       0.06180800
   189  H         -0.01873100       0.97122600       0.16423800
   190  H          0.48126900       0.02877400       0.16423800
   191  H          0.88768800       0.79335700      -0.01376300
   192  H          0.38768800       0.20664300      -0.01376300
   193  H          0.89741600       0.76690900       0.91176000
   194  H          0.39741600       0.23309100       0.91176000
   195  H          0.14877400       0.72804900       0.87561400
   196  H          0.64877400       0.27195100       0.87561400
   197  H          0.08015900       0.65845500       0.92532700
   198  H          0.58015900       0.34154500       0.92532700
   199  H          0.37366000       0.63354500       0.90136500
   200  H          0.87366000       0.36645500       0.90136500
   201  H          0.42675000       0.72690900       0.92565400
   202  H          0.92675000       0.27309100       0.92565400
   203  H          0.35842400       0.65760800       0.97515800
   204  H          0.85842400       0.34239200       0.97515800
   205  Br         0.14531300       0.43535000       0.22417000
   206  Br         0.64531300       0.56465000       0.22417000
   207  Cl         0.76458400       0.58637000       0.83651000
   208  Cl         0.26458400       0.41363000       0.83651000
   209  N          0.03920000       0.62197000       0.12498000
   210  N          0.53920000       0.37803000       0.12498000
   211  N          0.93170000       0.36131500       0.07481300
   212  N          0.43170000       0.63868500       0.07481300
   213  O          0.92070000       0.73731100       0.09859000
   214  O          0.42070000       0.26268900       0.09859000
   215  F          0.21530000       0.59401100       0.27301200
   216  F          0.71530000       0.40598900       0.27301200
   217  F          0.04930000       0.67811300       0.25091200
   218  F          0.54930000       0.32188700       0.25091200
   219  F          0.26830000       0.67621300       0.21811200
   220  F          0.76830000       0.32378700       0.21811200
   221  C          0.83080000       0.58251000       0.90951000
   222  C          0.33080000       0.41749000       0.90951000
   223  C          0.75680000       0.63221200       0.95141100
   224  C          0.25680000       0.36778800       0.95141100
   225  C          0.81280000       0.62961200       0.00961000
   226  C          0.31280000       0.37038800       0.00961000
   227  C         -0.05141700       0.57938000       0.02599000
   228  C          0.44858300       0.42062000       0.02599000
   229  C          0.01320000       0.53161100      -0.01528900
   230  C          0.51320000       0.46838900      -0.01528900
   231  C         -0.06020000       0.52809000       0.92771100
   232  C          0.43980000       0.47191000       0.92771100
   233  C         -0.01251900       0.56458000       0.08678000
   234  C          0.48748100       0.43542000       0.08678000
   235  C          0.01030000       0.49178000       0.11649000
   236  C          0.51030000       0.50822000       0.11649000
   237  C          0.08530000       0.50707000       0.17198000
   238  C          0.58530000       0.49293000       0.17198000
   239  C          0.09730000       0.58687000       0.17848000
   240  C          0.59730000       0.41313000       0.17848000
   241  C         -0.03330000       0.42021300       0.09331000
   242  C          0.46670000       0.57978700       0.09331000
   243  C          0.15901700       0.63437000       0.22949000
   244  C          0.65901700       0.36563000       0.22949000
   245  C          0.07020000       0.70291100       0.10881000
   246  C          0.57020000       0.29708900       0.10881000
   247  C          0.83970000       0.75341400       0.15189000
   248  C          0.33970000       0.24658600       0.15189000
   249  C          0.68370000       0.79031700       0.13801300
   250  C          0.18370000       0.20968300       0.13801300
   251  H          0.65899000       0.67083800       0.93821600
   252  H          0.15899000       0.32916200       0.93821600
   253  H          0.75643600       0.66484500       0.04176500
   254  H          0.25643600       0.33515500       0.04176500
   255  H          0.11944900       0.49694900      -0.00449600
   256  H          0.61944900       0.50305100      -0.00449600
   257  H         -0.02841500       0.48173600       0.89889100
   258  H          0.47158500       0.51826400       0.89889100
   259  H          0.13392600       0.73177700       0.14430200
   260  H          0.63392600       0.26822300       0.14430200
   261  H          0.13945600       0.70447400       0.06993600
   262  H          0.63945600       0.29552600       0.06993600
   263  H          0.91557300       0.79159700       0.17837300
   264  H          0.41557300       0.20840300       0.17837300
   265  H          0.81998000       0.70013800       0.17465900
   266  H          0.31998000       0.29986200       0.17465900
   267  H          0.62243800       0.80259500       0.17761100
   268  H          0.12243800       0.19740500       0.17761100
   269  H          0.70431700       0.84340400       0.11498500
   270  H          0.20431700       0.15659600       0.11498500
   271  H          0.60905600       0.75226300       0.11128300
   272  H          0.10905600       0.24773700       0.11128300
