data_BOKTEE04
_symmetry_space_group_name_H-M    'P1'
_symmetry_Int_Tables_number       1
loop_
_symmetry_equiv_pos_site_id
_symmetry_equiv_pos_as_xyz
1 x,y,z
_cell_length_a                   12.2591
_cell_length_b                   15.4531
_cell_length_c                   8.5831
_cell_angle_alpha                90.0
_cell_angle_beta                 104.141
_cell_angle_gamma                90.0
loop_
_atom_site_label
_atom_site_type_symbol
_atom_site_fract_x
_atom_site_fract_y
_atom_site_fract_z
     1  Br         0.93479200       0.60350700       0.02567130
     2  Br         0.56520800       0.10350700       0.47432870
     3  Br         0.06520800       0.39649300       0.97432870
     4  Br         0.43479200       0.89649300       0.52567130
     5  Cl         0.71078110       0.62140120       0.68190190
     6  Cl         0.78921890       0.12140120       0.81809810
     7  Cl         0.28921890       0.37859880       0.31809810
     8  Cl         0.21078110       0.87859880       0.18190190
     9  C          0.56712000       0.62252000       0.60334000
    10  C          0.93288000       0.12252000       0.89666000
    11  C          0.43288000       0.37748000       0.39666000
    12  C          0.06712000       0.87748000       0.10334000
    13  C          0.16362000       0.61112000       0.22884000
    14  C          0.33638000       0.11112000       0.27116000
    15  C          0.83638000       0.38888000       0.77116000
    16  C          0.66362000       0.88888000       0.72884000
    17  C          0.40762000       0.67442000       0.40254000
    18  C          0.09238000       0.17442000       0.09746000
    19  C          0.59238000       0.32558000       0.59746000
    20  C          0.90762000       0.82558000       0.90254000
    21  C          0.52212000       0.67482000       0.47094000
    22  C          0.97788000       0.17482000       0.02906000
    23  C          0.47788000       0.32518000       0.52906000
    24  C          0.02212000       0.82518000       0.97094000
    25  C          0.21793000       0.60083000       0.10544000
    26  C          0.28207000       0.10083000       0.39456000
    27  C          0.78207000       0.39917000       0.89456000
    28  C          0.71793000       0.89917000       0.60544000
    29  C          0.15372000       0.65752000       0.64124000
    30  C          0.34628000       0.15752000       0.85876000
    31  C          0.84628000       0.34248000       0.35876000
    32  C          0.65372000       0.84248000       0.14124000
    33  C          0.49822000       0.56912000       0.66564000
    34  C          0.00178000       0.06912000       0.83436000
    35  C          0.50178000       0.43088000       0.33436000
    36  C         -0.00178000       0.93088000       0.16564000
    37  O          0.09812000       0.73482000       0.64354000
    38  O          0.40188000       0.23482000       0.85646000
    39  O          0.90188000       0.26518000       0.35646000
    40  O          0.59812000       0.76518000       0.14354000
    41  F          0.84708000       0.56663000       0.32965000
    42  F          0.65292000       0.06663000       0.17035000
    43  F          0.15292000       0.43337000       0.67035000
    44  F          0.34708000       0.93337000       0.82965000
    45  F          0.93488000       0.59462000       0.56904000
    46  F          0.56512000       0.09462000       0.93096000
    47  F          0.06512000       0.40538000       0.43096000
    48  F          0.43488000       0.90538000       0.06904000
    49  C          0.13843000       0.80302000       0.56415000
    50  C          0.36157000       0.30302000       0.93585000
    51  C          0.86157000       0.19698000       0.43585000
    52  C          0.63843000       0.69698000       0.06415000
    53  N          0.26433000       0.59183000       0.00244000
    54  N          0.23567000       0.09183000       0.49756000
    55  N          0.73567000       0.40817000      -0.00244000
    56  N          0.76433000       0.90817000       0.50244000
    57  C          0.38272000       0.56952000       0.59923000
    58  C          0.11728000       0.06952000       0.90077000
    59  C          0.61728000       0.43048000       0.40077000
    60  C          0.88272000       0.93048000       0.09923000
    61  N          0.13432000       0.62512000       0.47494000
    62  N          0.36568000       0.12512000       0.02506000
    63  N          0.86568000       0.37488000       0.52506000
    64  N          0.63432000       0.87488000       0.97494000
    65  C          0.04412000       0.61142000       0.21724000
    66  C          0.45588000       0.11142000       0.28276000
    67  C          0.95588000       0.38858000       0.78276000
    68  C          0.54412000       0.88858000       0.71724000
    69  F          0.87468000       0.69873000       0.40925000
    70  F          0.62532000       0.19873000       0.09075000
    71  F          0.12532000       0.30127000       0.59075000
    72  F          0.37468000       0.80127000       0.90925000
    73  C          0.02862000       0.61872000       0.36874000
    74  C          0.47138000       0.11872000       0.13126000
    75  C          0.97138000       0.38128000       0.63126000
    76  C          0.52862000       0.88128000       0.86874000
    77  C          0.21722000       0.62032000       0.39214000
    78  C          0.28278000       0.12032000       0.10786000
    79  C          0.78278000       0.37968000       0.60786000
    80  C          0.71722000       0.87968000       0.89214000
    81  C          0.33702000       0.62162000       0.46704000
    82  C          0.16298000       0.12162000       0.03296000
    83  C          0.66298000       0.37838000       0.53296000
    84  C          0.83702000       0.87838000       0.96704000
    85  C          0.92147000       0.62143000       0.42004000
    86  C          0.57853000       0.12143000       0.07996000
    87  C          0.07853000       0.37857000       0.57996000
    88  C          0.42147000       0.87857000       0.92004000
    89  C          0.08503000       0.88753000       0.59675000
    90  C          0.41497000       0.38753000       0.90325000
    91  C          0.91497000       0.11247000       0.40325000
    92  C          0.58503000       0.61247000       0.09675000
    93  H          0.37213500       0.71557500       0.29778100
    94  H          0.12786500       0.21557500       0.20221900
    95  H          0.62786500       0.28442500       0.70221900
    96  H          0.87213500       0.78442500       0.79778100
    97  H          0.57774000       0.71641900       0.42061600
    98  H          0.92226000       0.21641900       0.07938400
    99  H          0.42226000       0.28358100       0.57938400
   100  H          0.07774000       0.78358100       0.92061600
   101  H          0.53451900       0.52637300       0.76752700
   102  H          0.96548100       0.02637300       0.73247300
   103  H          0.46548100       0.47362700       0.23247300
   104  H          0.03451900       0.97362700       0.26752700
   105  H          0.32740200       0.52846100       0.65132200
   106  H          0.17259800       0.02846100       0.84867800
   107  H          0.67259800       0.47153900       0.34867800
   108  H          0.82740200       0.97153900       0.15132200
   109  H          0.24438400       0.66708800       0.69144000
   110  H          0.25561600       0.16708800       0.80856000
   111  H          0.75561600       0.33291200       0.30856000
   112  H          0.74438400       0.83291200       0.19144000
   113  H          0.12282500       0.60966100       0.71517500
   114  H          0.37717500       0.10966100       0.78482500
   115  H          0.87717500       0.39033900       0.28482500
   116  H          0.62282500       0.89033900       0.21517500
   117  H          0.11699200       0.79036400       0.43408100
   118  H          0.38300800       0.29036400       0.06591900
   119  H          0.88300800       0.20963600       0.56591900
   120  H          0.61699200       0.70963600       0.93408100
   121  H          0.23030800       0.80759600       0.60805800
   122  H          0.26969200       0.30759600       0.89194200
   123  H          0.76969200       0.19240400       0.39194200
   124  H          0.73030800       0.69240400       0.10805800
   125  H         -0.00505600       0.88697100       0.53565500
   126  H          0.50505600       0.38697100       0.96434500
   127  H          0.00505600       0.11302900       0.46434500
   128  H          0.49494400       0.61302900       0.03565500
   129  H          0.09482200       0.89507400       0.72688900
   130  H          0.40517800       0.39507400       0.77311100
   131  H          0.90517800       0.10492600       0.27311100
   132  H          0.59482200       0.60492600       0.22688900
   133  H          0.12640500       0.94177600       0.55131400
   134  H          0.37359500       0.44177600       0.94868600
   135  H          0.87359500       0.05822400       0.44868600
   136  H          0.62640500       0.55822400       0.05131400
