data_BOKTEE
_symmetry_space_group_name_H-M    'P1'
_symmetry_Int_Tables_number       1
loop_
_symmetry_equiv_pos_site_id
_symmetry_equiv_pos_as_xyz
1 x,y,z
_cell_length_a                   8.0781
_cell_length_b                   17.4602
_cell_length_c                   22.7076
_cell_angle_alpha                90.0
_cell_angle_beta                 91.531
_cell_angle_gamma                90.0
loop_
_atom_site_label
_atom_site_type_symbol
_atom_site_fract_x
_atom_site_fract_y
_atom_site_fract_z
     1  Br         0.92940000      -0.00268850       0.35764400
     2  Br         0.42940000       0.00268850       0.35764400
     3  Cl         0.73786000       0.69482000       0.70784000
     4  Cl         0.23786000       0.30518000       0.70784000
     5  N          0.73109000       0.79884000       0.41766000
     6  N          0.23109000       0.20116000       0.41766000
     7  N          0.00771200       0.98995000       0.52537000
     8  N          0.50771200       0.01005000       0.52537000
     9  O          0.75729000       0.66864000       0.40326000
    10  O          0.25729000       0.33136000       0.40326000
    11  F          0.79901400       0.87607000       0.27549000
    12  F          0.29901400       0.12393000       0.27549000
    13  F          0.56151400       0.84106000       0.29939000
    14  F          0.06151400       0.15894000       0.29939000
    15  F          0.75461300       0.76366000       0.29608000
    16  F          0.25461300       0.23634000       0.29608000
    17  C          0.74021000       0.73104000       0.63916000
    18  C          0.24021000       0.26896000       0.63916000
    19  C          0.79321000       0.68665000       0.59235000
    20  C          0.29321000       0.31335000       0.59235000
    21  C          0.80619000       0.71614000       0.53556000
    22  C          0.30619000       0.28386000       0.53556000
    23  C          0.76871000       0.79574000       0.52456000
    24  C          0.26871000       0.20426000       0.52456000
    25  C          0.72621000       0.83956000       0.57116000
    26  C          0.22621000       0.16044000       0.57116000
    27  C          0.70571000       0.80725000       0.62636000
    28  C          0.20571000       0.19275000       0.62636000
    29  C          0.78909000       0.83134000       0.46806000
    30  C          0.28909000       0.16866000       0.46806000
    31  C          0.87161000       0.89894000       0.45747000
    32  C          0.37161000       0.10106000       0.45747000
    33  C          0.84819000       0.91104000       0.39506000
    34  C          0.34819000       0.08896000       0.39506000
    35  C          0.77221000       0.84734000       0.37206000
    36  C          0.27221000       0.15266000       0.37206000
    37  C          0.93921300       0.94956000       0.49528000
    38  C          0.43921300       0.05044000       0.49528000
    39  C          0.72571100       0.83375000       0.30877000
    40  C          0.22571100       0.16625000       0.30877000
    41  C          0.64299000       0.72893000       0.41215000
    42  C          0.14299000       0.27107000       0.41215000
    43  C          0.67251300       0.59535000       0.39606000
    44  C          0.17251300       0.40465000       0.39606000
    45  C          0.80321000       0.53174000       0.38696000
    46  C          0.30321000       0.46826000       0.38696000
    47  H          0.82541000       0.62719600       0.60017800
    48  H          0.32541000       0.37280400       0.60017800
    49  H          0.84395600       0.67950500       0.49987400
    50  H          0.34395600       0.32049500       0.49987400
    51  H          0.70793900       0.90043100       0.56510700
    52  H          0.20793900       0.09956900       0.56510700
    53  H          0.66063700       0.84334200       0.66117700
    54  H          0.16063700       0.15665800       0.66117700
    55  H          0.57643600       0.71830100       0.45208300
    56  H          0.07643600       0.28169900       0.45208300
    57  H          0.55692400       0.73210000       0.37481900
    58  H          0.05692400       0.26790000       0.37481900
    59  H          0.58929900       0.59777900       0.35785500
    60  H          0.08929900       0.40222100       0.35785500
    61  H          0.60361000       0.58288900       0.43509700
    62  H          0.10361000       0.41711100       0.43509700
    63  H          0.74143300       0.47700000       0.38153000
    64  H          0.24143300       0.52300000       0.38153000
    65  H          0.87252100       0.54421000       0.34796400
    66  H          0.37252100       0.45579000       0.34796400
    67  H          0.88678400       0.52937000       0.42494600
    68  H          0.38678400       0.47063000       0.42494600
    69  Br         0.47184000       0.50244140       0.69923000
    70  Br         0.97184000       0.49755860       0.69923000
    71  Cl         0.19256000       0.80592000       0.35064000
    72  Cl         0.69256000       0.19408000       0.35064000
    73  N          0.25788000       0.70064000       0.64426000
    74  N          0.75788000       0.29936000       0.64426000
    75  N          0.50691100       0.50865000       0.52967000
    76  N          0.00691100       0.49135000       0.52967000
    77  O          0.28231000       0.82804000       0.65746000
    78  O          0.78231000       0.17196000       0.65746000
    79  F          0.36061200       0.62285000       0.78747000
    80  F          0.86061200       0.37715000       0.78747000
    81  F          0.11691200       0.66055000       0.76058000
    82  F          0.61691200       0.33945000       0.76058000
    83  F          0.31541200       0.73745000       0.76357000
    84  F          0.81541200       0.26255000       0.76357000
    85  C          0.21911000       0.76954000       0.42186000
    86  C          0.71911000       0.23046000       0.42186000
    87  C          0.28211000       0.81245000       0.46875000
    88  C          0.78211000       0.18755000       0.46875000
    89  C          0.30509000       0.78253000       0.52445000
    90  C          0.80509000       0.21747000       0.52445000
    91  C          0.27109000       0.70484000       0.53325000
    92  C          0.77109000       0.29516000       0.53325000
    93  C          0.21421000       0.65995000       0.48725000
    94  C          0.71421000       0.34005000       0.48725000
    95  C          0.18521000       0.69134000       0.43216000
    96  C          0.68521000       0.30866000       0.43216000
    97  C          0.30358000       0.67034000       0.59166000
    98  C          0.80358000       0.32966000       0.59166000
    99  C          0.37699000       0.59904000       0.60106000
   100  C          0.87699000       0.40096000       0.60106000
   101  C          0.38261000       0.58854000       0.66586000
   102  C          0.88261000       0.41146000       0.66586000
   103  C          0.31171000       0.65415000       0.68827000
   104  C          0.81171000       0.34585000       0.68827000
   105  C          0.45171100       0.54965000       0.56467000
   106  C          0.95171100       0.45035000       0.56467000
   107  C          0.27421100       0.66765000       0.74638000
   108  C          0.77421100       0.33235000       0.74638000
   109  C          0.17141000       0.77054000       0.64935000
   110  C          0.67141000       0.22946000       0.64935000
   111  C          0.19331300       0.90385000       0.66297000
   112  C          0.69331300       0.09615000       0.66297000
   113  C          0.32951300       0.97126000       0.66058000
   114  C          0.82951300       0.02874000       0.66058000
   115  H          0.31452600       0.87166500       0.46115500
   116  H          0.81452600       0.12833500       0.46115500
   117  H          0.34817400       0.81826400       0.56064100
   118  H          0.84817400       0.18173600       0.56064100
   119  H          0.19223300       0.59946300       0.49418200
   120  H          0.69223300       0.40053700       0.49418200
   121  H          0.13611300       0.65590000       0.39660400
   122  H          0.63611300       0.34410000       0.39660400
   123  H          0.09856400       0.78070900       0.60935000
   124  H          0.59856400       0.21929100       0.60935000
   125  H          0.09128600       0.76771500       0.68669500
   126  H          0.59128600       0.23228500       0.68669500
   127  H          0.13191400       0.90599600       0.70462600
   128  H          0.63191400       0.09400400       0.70462600
   129  H          0.10513300       0.91028000       0.62648700
   130  H          0.60513300       0.08972000       0.62648700
   131  H          0.26888300       0.02613000       0.66431100
   132  H          0.76888300       0.97387000       0.66431100
   133  H          0.41882200       0.96415200       0.69647400
   134  H          0.91882200       0.03584800       0.69647400
   135  H          0.39227300       0.96839800       0.61900900
   136  H          0.89227300       0.03160200       0.61900900
   137  Br         0.86275000       0.06281190       0.82874000
   138  Br         0.36275000       0.93718810       0.82874000
   139  Cl         0.22498000       0.90743000       0.21935000
   140  Cl         0.72498000       0.09257000       0.21935000
   141  N          0.95571000       0.87344000       0.92946000
   142  N          0.45571000       0.12656000       0.92946000
   143  N          0.07561300       0.13086000       0.97979000
   144  N          0.57561300       0.86914000       0.97979000
   145  O          0.07561400       0.76806000       0.96079000
   146  O          0.57561400       0.23194000       0.96079000
   147  F          0.79498600       0.90017000       0.78409000
   148  F          0.29498600       0.09983000       0.78409000
   149  F          0.71358700       0.81686000       0.83709000
   150  F          0.21358700       0.18314000       0.83709000
   151  F          0.95818600       0.81527000       0.80849000
   152  F          0.45818600       0.18473000       0.80849000
   153  C          0.15931200       0.91206000       0.14607000
   154  C          0.65931200       0.08794000       0.14607000
   155  C          0.24571500       0.87406000       0.10426000
   156  C          0.74571500       0.12594000       0.10426000
   157  C          0.19141000       0.87715000       0.04647000
   158  C          0.69141000       0.12285000       0.04647000
   159  C          0.06231000       0.92444000       0.02966000
   160  C          0.56231000       0.07556000       0.02966000
   161  C          0.97038600       0.95966000       0.07166000
   162  C          0.47038600       0.04034000       0.07166000
   163  C          0.03241300       0.95686000       0.12858000
   164  C          0.53241300       0.04314000       0.12858000
   165  C          0.00591200       0.92786000       0.96708000
   166  C          0.50591200       0.07214000       0.96708000
   167  C         -0.00341100      -0.00015000       0.93947000
   168  C          0.49658900       0.00015000       0.93947000
   169  C          0.91828800       0.98285000       0.88367000
   170  C          0.41828800       0.01715000       0.88367000
   171  C          0.90658700       0.90446000       0.87819000
   172  C          0.40658700       0.09554000       0.87819000
   173  C          0.02721100       0.07566000       0.95988000
   174  C          0.52721100       0.92434000       0.95988000
   175  C          0.83728700       0.85826000       0.82918000
   176  C          0.33728700       0.14174000       0.82918000
   177  C          0.94289000       0.79984000       0.94955000
   178  C          0.44289000       0.20016000       0.94955000
   179  C          0.18031200       0.73866000       0.90958000
   180  C          0.68031200       0.26134000       0.90958000
   181  C          0.32751400       0.69417000       0.92728000
   182  C          0.82751400       0.30583000       0.92728000
   183  H          0.35569300       0.84173700       0.11649400
   184  H          0.85569300       0.15826300       0.11649400
   185  H          0.25072900       0.84213800       0.01378400
   186  H          0.75072900       0.15786200       0.01378400
   187  H          0.85482200       0.98818600       0.06058100
   188  H          0.35482200       0.01181400       0.06058100
   189  H          0.97564000      -0.00722600       0.16106900
   190  H          0.47564000       0.00722600       0.16106900
   191  H          0.86754900       0.79895700       0.98819700
   192  H          0.36754900       0.20104300       0.98819700
   193  H          0.87216300       0.76600300       0.91777000
   194  H          0.37216300       0.23399700       0.91777000
   195  H          0.21664300       0.78646200       0.88246400
   196  H          0.71664300       0.21353800       0.88246400
   197  H          0.10301300       0.70498600       0.87966200
   198  H          0.60301300       0.29501400       0.87966200
   199  H          0.39182900       0.67631800       0.88829800
   200  H          0.89182900       0.32368200       0.88829800
   201  H          0.40886900       0.72914600       0.95459300
   202  H          0.90886900       0.27085400       0.95459300
   203  H          0.29027400       0.64411000       0.95166900
   204  H          0.79027400       0.35589000       0.95166900
   205  Br         0.13695000       0.43924190       0.22833000
   206  Br         0.63695000       0.56075810       0.22833000
   207  Cl         0.76003000       0.58983000       0.83805000
   208  Cl         0.26003000       0.41017000       0.83805000
   209  N          0.03911100       0.62225000       0.12567000
   210  N          0.53911100       0.37775000       0.12567000
   211  N          0.92178900       0.36515000       0.08087000
   212  N          0.42178900       0.63485000       0.08087000
   213  O          0.90928900       0.74515000       0.09657000
   214  O          0.40928900       0.25485000       0.09657000
   215  F          0.20081400       0.59657000       0.27401000
   216  F          0.70081400       0.40343000       0.27401000
   217  F          0.04721500       0.68837000       0.24511000
   218  F          0.54721500       0.31163000       0.24511000
   219  F          0.28191200       0.68516000       0.21259000
   220  F          0.78191200       0.31484000       0.21259000
   221  C          0.82928800       0.58355000       0.90997000
   222  C          0.32928800       0.41645000       0.90997000
   223  C          0.74548800       0.63085000       0.94996000
   224  C          0.24548800       0.36915000       0.94996000
   225  C          0.79918900       0.62525000       0.01017000
   226  C          0.29918900       0.37475000       0.01017000
   227  C          0.93428900       0.57745000       0.02938000
   228  C          0.43428900       0.42255000       0.02938000
   229  C          0.00681600       0.52867000       0.98788000
   230  C          0.50681600       0.47133000       0.98788000
   231  C          0.95858600       0.53527000       0.92699000
   232  C          0.45858600       0.46473000       0.92699000
   233  C         -0.00601000       0.56465000       0.08987000
   234  C          0.49399000       0.43535000       0.08987000
   235  C          0.01221100       0.49765000       0.11697000
   236  C          0.51221100       0.50235000       0.11697000
   237  C          0.08441100       0.50965000       0.17518000
   238  C          0.58441100       0.49035000       0.17518000
   239  C          0.09701000       0.58955000       0.17917000
   240  C          0.59701000       0.41045000       0.17917000
   241  C          0.95868700       0.43126000       0.09709000
   242  C          0.45868700       0.56874000       0.09709000
   243  C          0.15341300       0.63886000       0.22939000
   244  C          0.65341300       0.36114000       0.22939000
   245  C          0.06061400       0.70896000       0.10507000
   246  C          0.56061400       0.29104000       0.10507000
   247  C          0.82398600       0.75836000       0.15171000
   248  C          0.32398600       0.24164000       0.15171000
   249  C          0.67488400       0.80289000       0.13549000
   250  C          0.17488400       0.19711000       0.13549000
   251  H          0.64661100       0.66892700       0.93572600
   252  H          0.14661100       0.33107300       0.93572600
   253  H          0.73514700       0.65838500       0.04262900
   254  H          0.23514700       0.34161500       0.04262900
   255  H          0.09794100       0.48651000       0.00192200
   256  H          0.59794100       0.51349000       0.00192200
   257  H          0.02296200       0.50260200       0.89403200
   258  H          0.52296200       0.49739800       0.89403200
   259  H          0.13392000       0.73976700       0.13775700
   260  H          0.63392000       0.26023300       0.13775700
   261  H          0.12803500       0.71038200       0.06448400
   262  H          0.62803500       0.28961800       0.06448400
   263  H          0.90263300       0.79171600       0.18122500
   264  H          0.40263300       0.20828400       0.18122500
   265  H          0.78781600       0.70390900       0.17024100
   266  H          0.28781600       0.29609100       0.17024100
   267  H          0.60555300       0.81466800       0.17446500
   268  H          0.10555300       0.18533200       0.17446500
   269  H          0.71098500       0.85622900       0.11522100
   270  H          0.21098500       0.14377100       0.11522100
   271  H          0.59860800       0.77028800       0.10447100
   272  H          0.09860800       0.22971200       0.10447100
