data_BOKTEE05
_symmetry_space_group_name_H-M    'P1'
_symmetry_Int_Tables_number       1
loop_
_symmetry_equiv_pos_site_id
_symmetry_equiv_pos_as_xyz
1 x,y,z
_cell_length_a                   22.7674
_cell_length_b                   17.4843
_cell_length_c                   8.029012
_cell_angle_alpha                90.0
_cell_angle_beta                 91.1663
_cell_angle_gamma                90.0
loop_
_atom_site_label
_atom_site_type_symbol
_atom_site_fract_x
_atom_site_fract_y
_atom_site_fract_z
     1  Br         0.83056700       0.49909700       0.06490170
     2  Br         0.83056700       0.50090300       0.56490170
     3  Cl         0.17942160       0.19289190       0.34015000
     4  Cl         0.17942160       0.80710810       0.84015000
     5  F          0.76724000       0.34135000       0.42601100
     6  F          0.76724000       0.65865000       0.92601100
     7  F          0.76364000       0.26115000       0.22431400
     8  F          0.76364000       0.73885000       0.72431400
     9  F          0.74314000       0.37925000       0.17751300
    10  F          0.74314000       0.62075000       0.67751300
    11  O          0.87305000       0.16865000       0.25841300
    12  O          0.87305000       0.83135000       0.75841300
    13  N          0.88725000       0.30066000       0.28031400
    14  N          0.88725000       0.69934000       0.78031400
    15  C          0.86696000       0.41086000       0.15491500
    16  C          0.86696000       0.58914000       0.65491500
    17  N          0.00136000       0.49368000       0.02320000
    18  N          0.00136000       0.50632000       0.52320000
    19  C          0.87996000       0.22936000       0.37041700
    20  C          0.87996000       0.77064000       0.87041700
    21  H          0.91482000       0.22012100       0.44329500
    22  H          0.91482000       0.77987900       0.94329500
    23  H          0.84505100       0.23271200       0.44162200
    24  H          0.84505100       0.76728800       0.94162200
    25  C          0.04466000       0.33957000       0.32591600
    26  C          0.04466000       0.66043000       0.82591600
    27  H          0.03797600       0.39192700       0.35037000
    28  H          0.03797600       0.60807300       0.85037000
    29  C          0.10037000       0.30778000       0.34941800
    30  C          0.10037000       0.69222000       0.84941800
    31  H          0.13199400       0.33837700       0.38961000
    32  H          0.13199400       0.66162300       0.88961000
    33  C          0.92956000       0.40096000       0.15811600
    34  C          0.92956000       0.59904000       0.65811600
    35  C          0.94056000       0.33026000       0.23341700
    36  C          0.94056000       0.66974000       0.73341700
    37  C          0.97036000       0.45116000       0.08420000
    38  C          0.97036000       0.54884000       0.58420000
    39  C         -0.00144000       0.29367000       0.26591600
    40  C         -0.00144000       0.70633000       0.76591600
    41  C          0.06337000       0.18447000       0.25831800
    42  C          0.06337000       0.81553000       0.75831800
    43  H          0.06991000       0.13144500       0.23955400
    44  H          0.06991000       0.86855500       0.73955400
    45  C          0.00776000       0.21597000       0.23061900
    46  C          0.00776000       0.78403000       0.73061900
    47  H          0.97639400       0.18509900       0.18831300
    48  H          0.97639400       0.81490100       0.68831300
    49  C          0.84206000       0.34937000       0.22841600
    50  C          0.84206000       0.65063000       0.72841600
    51  C          0.86477000       0.09617000       0.33820000
    52  C          0.86477000       0.90383000       0.83820000
    53  H          0.82599000       0.09512300       0.39205900
    54  H          0.82599000       0.90487700       0.89205900
    55  H          0.89547900       0.08850500       0.42550200
    56  H          0.89547900       0.91149500       0.92550200
    57  C          0.77947000       0.33248000       0.26511900
    58  C          0.77947000       0.66752000       0.76511900
    59  C          0.10916000       0.23148000       0.31391600
    60  C          0.10916000       0.76852000       0.81391600
    61  C          0.86778000       0.03438000       0.21530000
    62  C          0.86778000       0.96562000       0.71530000
    63  H          0.88165300       0.98743400       0.27025500
    64  H          0.88165300       0.01256600       0.77025500
    65  H          0.89493600       0.04866900       0.12774000
    66  H          0.89493600       0.95133100       0.62774000
    67  H          0.82857100       0.02548000       0.16610600
    68  H          0.82857100       0.97452000       0.66610600
    69  Br         0.17290700       0.00095700       0.60098180
    70  Br         0.17290700      -0.00095700       0.10098180
    71  Cl         0.82080840       0.30511190       0.80675000
    72  Cl         0.82080840       0.69488810       0.30675000
    73  F          0.23734000       0.23925000       0.78411400
    74  F          0.23734000       0.76075000       0.28411400
    75  F          0.23384000       0.15586000       0.97531200
    76  F          0.23384000       0.84414000       0.47531200
    77  N          0.11395000       0.20076000       0.80441400
    78  N          0.11395000       0.79924000       0.30441400
    79  O          0.12895000       0.33075000       0.77961300
    80  O          0.12895000       0.66925000       0.27961300
    81  F          0.25834000       0.12296000       0.72691500
    82  F          0.25834000       0.87704000       0.22691500
    83  N          0.00297000       0.00997000       0.51081800
    84  N          0.00297000       0.99003000       0.01081800
    85  C          0.95654000       0.16097000       0.81641700
    86  C          0.95654000       0.83903000       0.31641700
    87  H          0.96338300       0.10839400       0.84063000
    88  H          0.96338300       0.89160600       0.34063000
    89  C          0.22227000       0.16577000       0.81261700
    90  C          0.22227000       0.83423000       0.31261700
    91  C          0.89164000       0.26897000       0.79731700
    92  C          0.89164000       0.73103000       0.29731700
    93  C          0.90014000       0.19117000       0.83161900
    94  C          0.90014000       0.80883000       0.33161900
    95  H          0.86836200       0.15967600       0.86445400
    96  H          0.86836200       0.84032400       0.36445400
    97  C          0.13596000       0.09037000       0.68551700
    98  C          0.13596000       0.90963000       0.18551700
    99  C          0.07336000       0.10066000       0.67261800
   100  C          0.07336000       0.89934000       0.17261800
   101  C          0.12036000       0.27226000       0.89411800
   102  C          0.12036000       0.72774000       0.39411800
   103  H          0.08459000       0.28251000       0.95871200
   104  H          0.08459000       0.71749000       0.45871200
   105  H          0.15428900       0.26927600       0.97274600
   106  H          0.15428900       0.73072400       0.47274600
   107  C          0.00276000       0.20657000       0.76641700
   108  C          0.00276000       0.79343000       0.26641700
   109  C          0.03326000       0.05107000       0.58381900
   110  C          0.03326000       0.94893000       0.08381900
   111  C          0.15986000       0.14947000       0.76491700
   112  C          0.15986000       0.85053000       0.26491700
   113  C          0.06236000       0.16897000       0.74641700
   114  C          0.06236000       0.83103000       0.24641700
   115  C          0.93773000       0.31497000       0.74611800
   116  C          0.93773000       0.68503000       0.24611800
   117  H          0.93128800       0.36762300       0.72356600
   118  H          0.93128800       0.63237700       0.22356600
   119  C          0.99364000       0.28377000       0.72791800
   120  C          0.99364000       0.71623000       0.22791800
   121  H          0.02515600       0.31435400       0.68991800
   122  H          0.02515600       0.68564600       0.18991800
   123  C          0.13567000       0.40377000       0.85820000
   124  C          0.13567000       0.59623000       0.35820000
   125  H          0.17018100       0.40341100       0.93525800
   126  H          0.17018100       0.59658900       0.43525800
   127  H          0.10030000       0.41612100       0.92309900
   128  H          0.10030000       0.58387900       0.42309900
   129  C          0.14388000       0.46188000       0.72220000
   130  C          0.14388000       0.53812000       0.22220000
   131  H          0.11202000       0.45667100       0.63900100
   132  H          0.11202000       0.54332900       0.13900100
   133  H          0.18165300       0.45309000       0.66943200
   134  H          0.18165300       0.54691000       0.16943200
   135  H          0.14313100       0.51334400       0.77009800
   136  H          0.14313100       0.48665600       0.27009800
   137  Br         0.70357700       0.93850200       0.67887190
   138  Br         0.70357700       0.06149800       0.17887190
   139  Cl         0.30955170       0.09053000       0.31505000
   140  Cl         0.30955170       0.90947000       0.81505000
   141  F          0.69114000       0.18495000       0.83441300
   142  F          0.69114000       0.81505000       0.33441300
   143  F          0.72154000       0.18975000       0.58501300
   144  F          0.72154000       0.81025000       0.08501300
   145  F          0.75004000       0.09665000       0.74601300
   146  F          0.75004000       0.90335000       0.24601300
   147  N          0.59976000       0.12616000       0.58451500
   148  N          0.59976000       0.87384000       0.08451500
   149  O          0.57084000       0.24245000       0.45401200
   150  O          0.57084000       0.75755000       0.95401200
   151  C          0.65286000       0.09497000       0.64381900
   152  C          0.65286000       0.90503000       0.14381900
   153  C          0.64897000       0.01618000       0.62601800
   154  C          0.64897000       0.98382000       0.12601800
   155  C          0.59216000      -0.00038000       0.55761900
   156  C          0.59216000       0.00038000       0.05761900
   157  C          0.48337000       0.12357000       0.34631700
   158  C          0.48337000       0.87643000       0.84631700
   159  H          0.51195100       0.15158900       0.28739600
   160  H          0.51195100       0.84841100       0.78739600
   161  C          0.62337000       0.26229000       0.36361900
   162  C          0.62337000       0.73771000       0.86361900
   163  H          0.64569700       0.21548200       0.33668800
   164  H          0.64569700       0.78451800       0.83668800
   165  H          0.64879300       0.29623700       0.43201800
   166  H          0.64879300       0.70376300       0.93201800
   167  C          0.58087000       0.20718000       0.60571900
   168  C          0.58087000       0.79282000       0.10571900
   169  H          0.54443900       0.20847900       0.67101700
   170  H          0.54443900       0.79152100       0.17101700
   171  H          0.61165500       0.23539300       0.66879300
   172  H          0.61165500       0.76460700       0.16879300
   173  C          0.70557000       0.14278000       0.70420000
   174  C          0.70557000       0.85722000       0.20420000
   175  C          0.56957000       0.92482000       0.51120000
   176  C          0.56957000       0.07518000       0.01120000
   177  C          0.42516000       0.12637000       0.29801700
   178  C          0.42516000       0.87363000       0.79801700
   179  H          0.41344200       0.15659300       0.20480600
   180  H          0.41344200       0.84340700       0.70480600
   181  C          0.56347000       0.06738000       0.53811900
   182  C          0.56347000       0.93262000       0.03811900
   183  N          0.55367000       0.86632000       0.46531700
   184  N          0.55367000       0.13368000       0.96531700
   185  C          0.45757000       0.03967000       0.57201900
   186  C          0.45757000       0.96033000       0.07201900
   187  H          0.46864300       0.01032300       0.66713800
   188  H          0.46864300       0.98967700       0.16713800
   189  C          0.60368000       0.30291000       0.20420000
   190  C          0.60368000       0.69709000       0.70420000
   191  H          0.58453900       0.26613100       0.12811100
   192  H          0.58453900       0.73386900       0.62811100
   193  H          0.63783700       0.32520300       0.14990700
   194  H          0.63783700       0.67479700       0.64990700
   195  H          0.57572800       0.34363300       0.23066700
   196  H          0.57572800       0.65636700       0.73066700
   197  C          0.39778000       0.04331000       0.52120000
   198  C          0.39778000       0.95669000       0.02120000
   199  H          0.36832500       0.01701000       0.58130000
   200  H          0.36832500       0.98299000       0.08130000
   201  C          0.49986000       0.07838000       0.48411800
   202  C          0.49986000       0.92162000      -0.01588200
   203  C          0.38347000       0.08588000       0.38320000
   204  C          0.38347000       0.91412000       0.88320000
   205  Br         0.30094700       0.56057800       0.39352000
   206  Br         0.30094700       0.43942200       0.89352000
   207  Cl         0.69432180       0.41002000       0.77295000
   208  Cl         0.69432180       0.58998000       0.27295000
   209  F          0.25554000       0.40116000       0.32011400
   210  F          0.25554000       0.59884000       0.82011400
   211  O          0.43205000       0.25766000       0.63021300
   212  O          0.43205000       0.74234000       0.13021300
   213  F          0.28255000       0.30847000       0.48841500
   214  F          0.28255000       0.69153000      -0.01158500
   215  N          0.45066000       0.63408000       0.61411900
   216  N          0.45066000       0.36592000       0.11411900
   217  F          0.31565000       0.31626000       0.23741400
   218  F          0.31565000       0.68374000       0.73741400
   219  C          0.44267000       0.43167000       0.54141800
   220  C          0.44267000       0.56833000       0.04141800
   221  N          0.40466000       0.37457000       0.48901700
   222  N          0.40466000       0.62543000      -0.01098300
   223  C          0.50417000       0.42167000       0.59851700
   224  C          0.50417000       0.57833000       0.09851700
   225  C          0.62137000       0.41398000       0.70271700
   226  C          0.62137000       0.58602000       0.20271700
   227  C          0.57848000       0.37158000       0.78801800
   228  C          0.57848000       0.62842000       0.28801800
   229  H          0.58940800       0.33994000       0.87978900
   230  H          0.58940800       0.66006000       0.37978900
   231  C          0.43397000       0.57388000       0.57161800
   232  C          0.43397000       0.42612000       0.07161800
   233  C          0.42357000       0.29388000       0.47281900
   234  C          0.42357000       0.70612000       0.97281900
   235  H          0.39340500       0.26522100       0.40732000
   236  H          0.39340500       0.73477900       0.90732000
   237  H          0.46065000       0.29195700       0.41108900
   238  H          0.46065000       0.70804300       0.91108900
   239  C          0.60597000       0.45921000       0.57130000
   240  C          0.60597000       0.54079000       0.07130000
   241  H          0.63518800       0.48726500       0.51490800
   242  H          0.63518800       0.51273500       0.01490800
   243  C          0.41296000       0.50148000       0.52020000
   244  C          0.41296000       0.49852000       0.02020000
   245  C          0.54677000       0.46461100       0.51820000
   246  C          0.54677000       0.53538900       0.01820000
   247  H          0.53584000       0.49720100       0.42777900
   248  H          0.53584000       0.50279900       0.92777900
   249  C          0.51977000       0.37647000       0.73581800
   250  C          0.51977000       0.62353000       0.23581800
   251  H          0.49041500       0.34907400       0.79367500
   252  H          0.49041500       0.65092600       0.29367500
   253  C          0.30267000       0.35799000       0.37120000
   254  C          0.30267000       0.64201000       0.87120000
   255  C          0.39578000       0.19801100       0.87320000
   256  C          0.39578000       0.80198900       0.37320000
   257  H          0.36096200       0.19170600       0.94237200
   258  H          0.36096200       0.80829400       0.44237200
   259  H          0.42565300       0.22721200       0.93537200
   260  H          0.42565300       0.77278800       0.43537200
   261  H          0.41140000       0.14754300       0.84511400
   262  H          0.41140000       0.85245700       0.34511400
   263  C          0.35197000       0.40698000       0.43331800
   264  C          0.35197000       0.59302000       0.93331800
   265  C          0.35577000       0.48468000       0.45020000
   266  C          0.35577000       0.51532000       0.95020000
   267  C          0.37888000       0.24008000       0.71620000
   268  C          0.37888000       0.75992000       0.21620000
   269  H          0.35276400       0.20784600       0.64535800
   270  H          0.35276400       0.79215400       0.14535800
   271  H          0.35764000       0.28774400       0.74350000
   272  H          0.35764000       0.71225600       0.24350000
