data_BOLMIZ
_symmetry_space_group_name_H-M    'P1'
_symmetry_Int_Tables_number       1
loop_
_symmetry_equiv_pos_site_id
_symmetry_equiv_pos_as_xyz
1 x,y,z
_cell_length_a                   18.417619
_cell_length_b                   13.828614
_cell_length_c                   11.274412
_cell_angle_alpha                90.0
_cell_angle_beta                 107.0102
_cell_angle_gamma                90.0
loop_
_atom_site_label
_atom_site_type_symbol
_atom_site_fract_x
_atom_site_fract_y
_atom_site_fract_z
     1  C          0.89279100       0.17054890       0.48243150
     2  C          0.10720900       0.67054890       0.01756850
     3  C          0.10720900       0.82945110       0.51756850
     4  C          0.89279100       0.32945110       0.98243150
     5  C          0.86577900       0.08365860       0.42884180
     6  C          0.13422100       0.58365860       0.07115820
     7  C          0.13422100       0.91634140       0.57115820
     8  C          0.86577900       0.41634140       0.92884180
     9  C          0.82664900       0.07908830       0.30254190
    10  C          0.17335100       0.57908830       0.19745810
    11  C          0.17335100       0.92091170       0.69745810
    12  C          0.82664900       0.42091170       0.80254190
    13  C          0.81169900       0.16159830       0.23476180
    14  C          0.18830100       0.66159830       0.26523820
    15  C          0.18830100       0.83840170       0.76523820
    16  C          0.81169900       0.33840170       0.73476180
    17  C          0.83464100       0.25271860       0.28916150
    18  C          0.16535900       0.75271860       0.21083850
    19  C          0.16535900       0.74728140       0.71083850
    20  C          0.83464100       0.24728140       0.78916150
    21  C          0.88055200       0.25713890       0.41413140
    22  C          0.11944800       0.75713890       0.08586860
    23  C          0.11944800       0.74286110       0.58586860
    24  C          0.88055200       0.24286110       0.91413140
    25  C          0.82004900       0.41659810       0.27682000
    26  C          0.17995100       0.91659810       0.22318000
    27  C          0.17995100       0.58340190       0.72318000
    28  C          0.82004900       0.08340190       0.77682000
    29  C          0.86531100       0.43129870       0.40213180
    30  C          0.13468900       0.93129870       0.09786820
    31  C          0.13468900       0.56870130       0.59786820
    32  C          0.86531100       0.06870130       0.90213180
    33  C          0.90478200       0.35164890       0.46787150
    34  C          0.09521800       0.85164890       0.03212850
    35  C          0.09521800       0.64835110       0.53212850
    36  C          0.90478200       0.14835110       0.96787150
    37  C          0.86986890       0.52347860       0.45922000
    38  C          0.13013110       0.02347860       0.04078000
    39  C          0.13013110       0.47652140       0.54078000
    40  C          0.86986890       0.97652140       0.95922000
    41  C          0.91121890       0.53563870       0.57832000
    42  C          0.08878110       0.03563870       0.92168000
    43  C          0.08878110       0.46436130       0.42168000
    44  C          0.91121890       0.96436130       0.07832000
    45  C          0.95911100       0.46068890       0.64148170
    46  C          0.04088900       0.96068890       0.85851830
    47  C          0.04088900       0.53931110       0.35851830
    48  C          0.95911100       0.03931110       0.14148170
    49  C          0.96183200       0.37102900       0.58381140
    50  C          0.03816800       0.87102900       0.91618860
    51  C          0.03816800       0.62897100       0.41618860
    52  C          0.96183200       0.12897100       0.08381140
    53  C          0.00762110       0.47485860       0.76525190
    54  C         -0.00762110       0.97485860       0.73474810
    55  C         -0.00762110       0.52514140       0.23474810
    56  C          0.00762110       0.02514140       0.26525190
    57  C          0.07488900       0.33883890       0.76029140
    58  C          0.92511100       0.83883890       0.73970860
    59  C          0.92511100       0.66116110       0.23970860
    60  C          0.07488900       0.16116110       0.26029140
    61  C          0.02775800       0.31154900       0.64146130
    62  C          0.97224200       0.81154900       0.85853870
    63  C          0.97224200       0.68845100       0.35853870
    64  C          0.02775800       0.18845100       0.14146130
    65  C          0.14284900       0.28881870       0.81531150
    66  C          0.85715100       0.78881870       0.68468850
    67  C          0.85715100       0.71118130       0.18468850
    68  C          0.14284900       0.21118130       0.31531150
    69  C          0.16645900       0.21681880       0.75320150
    70  C          0.83354100       0.71681880       0.74679850
    71  C          0.83354100       0.78318120       0.24679850
    72  C          0.16645900       0.28318120       0.25320150
    73  C          0.12267900       0.19211890       0.63406150
    74  C          0.87732100       0.69211890       0.86593850
    75  C          0.87732100       0.80788110       0.36593850
    76  C          0.12267900       0.30788110       0.13406150
    77  C          0.05485800       0.23770900       0.57973140
    78  C          0.94514200       0.73770900       0.92026860
    79  C          0.94514200       0.76229100       0.42026860
    80  C          0.05485800       0.26229100       0.07973140
    81  N          0.80728200       0.33435850       0.21915150
    82  N          0.19271800       0.83435850       0.28084850
    83  N          0.19271800       0.66564150       0.78084850
    84  N          0.80728200       0.16564150       0.71915150
    85  N          0.06069900       0.41786890       0.82536140
    86  N          0.93930100       0.91786890       0.67463860
    87  N          0.93930100       0.58213110       0.17463860
    88  N          0.06069900       0.08213110       0.32536140
    89  H          0.91791000       0.17399000       0.56991500
    90  H          0.08209000       0.67399000       0.93008500
    91  H          0.08209000       0.82601000       0.43008500
    92  H          0.91791000       0.32601000       0.06991500
    93  H          0.87538800       0.02038400       0.47920000
    94  H          0.12461200       0.52038400       0.02080000
    95  H          0.12461200       0.97961600       0.52080000
    96  H          0.87538800       0.47961600       0.97920000
    97  H          0.80688800       0.01758400       0.26520000
    98  H          0.19311200       0.51758400       0.23480000
    99  H          0.19311200       0.98241600       0.73480000
   100  H          0.80688800       0.48241600       0.76520000
   101  H          0.78438800       0.16088700       0.15220000
   102  H          0.21561200       0.66088700       0.34780000
   103  H          0.21561200       0.83911300       0.84780000
   104  H          0.78438800       0.33911300       0.65220000
   105  H          0.79908900       0.47518500       0.23401900
   106  H          0.20091100       0.97518500       0.26598100
   107  H          0.20091100       0.52481500       0.76598100
   108  H          0.79908900       0.02481500       0.73401900
   109  H          0.84098900       0.57078500       0.40511900
   110  H          0.15901100       0.07078500       0.09488100
   111  H          0.15901100       0.42921500       0.59488100
   112  H          0.84098900       0.92921500       0.90511900
   113  H          0.91588800       0.59758400       0.62621900
   114  H          0.08411200       0.09758400       0.87378100
   115  H          0.08411200       0.40241600       0.37378100
   116  H          0.91588800       0.90241600       0.12621900
   117  H         -0.00131000       0.53358600       0.80561800
   118  H          0.00131000       0.03358600       0.69438200
   119  H          0.00131000       0.46641400       0.19438200
   120  H         -0.00131000       0.96641400       0.30561800
   121  H          0.17181000       0.30918800       0.89791700
   122  H          0.82819000       0.80918800       0.60208300
   123  H          0.82819000       0.69081200       0.10208300
   124  H          0.17181000       0.19081200       0.39791700
   125  H          0.21371200       0.18468700       0.79261800
   126  H          0.78628800       0.68468700       0.70738200
   127  H          0.78628800       0.81531300       0.20738200
   128  H          0.21371200       0.31531300       0.29261800
   129  H          0.13999000       0.14298900       0.58771500
   130  H          0.86001000       0.64298900       0.91228500
   131  H          0.86001000       0.85701100       0.41228500
   132  H          0.13999000       0.35701100       0.08771500
   133  H          0.02729000       0.22138900       0.49901500
   134  H          0.97271000       0.72138900       0.00098500
   135  H          0.97271000       0.77861100       0.50098500
   136  H          0.02729000       0.27861100      -0.00098500
   137  C          0.44923200       0.75927900       0.02688130
   138  C          0.55076800       0.25927900       0.47311870
   139  C          0.55076800       0.24072100       0.97311870
   140  C          0.44923200       0.74072100       0.52688130
   141  C          0.38272100       0.80800890       0.01522150
   142  C          0.61727900       0.30800890       0.48477850
   143  C          0.61727900       0.19199110       0.98477850
   144  C          0.38272100       0.69199110       0.51522150
   145  C          0.33737100       0.78494870       0.09085150
   146  C          0.66262900       0.28494870       0.40914850
   147  C          0.66262900       0.21505130       0.90914850
   148  C          0.33737100       0.71505130       0.59085150
   149  C          0.35844100       0.71226870       0.17481160
   150  C          0.64155900       0.21226870       0.32518840
   151  C          0.64155900       0.28773130       0.82518840
   152  C          0.35844100       0.78773130       0.67481160
   153  C          0.42545100       0.65982890       0.18688130
   154  C          0.57454900       0.15982890       0.31311870
   155  C          0.57454900       0.34017110       0.81311870
   156  C          0.42545100       0.84017110       0.68688130
   157  C          0.47396200       0.68463900       0.11457120
   158  C          0.52603800       0.18463900       0.38542880
   159  C          0.52603800       0.31536100       0.88542880
   160  C          0.47396200       0.81536100       0.61457120
   161  C          0.49005890       0.52171870       0.25800160
   162  C          0.50994110       0.02171870       0.24199840
   163  C          0.50994110       0.47828130       0.74199840
   164  C          0.49005890       0.97828130       0.75800160
   165  C          0.54039100       0.53441890       0.18305140
   166  C          0.45960900       0.03441890       0.31694860
   167  C          0.45960900       0.46558110       0.81694860
   168  C          0.54039100       0.96558110       0.68305140
   169  C          0.53942200       0.62329900       0.12258120
   170  C          0.46057800       0.12329900       0.37741880
   171  C          0.46057800       0.37670100       0.87741880
   172  C          0.53942200       0.87670100       0.62258120
   173  C          0.58836900       0.45815880       0.16997170
   174  C          0.41163100       0.95815880       0.33002830
   175  C          0.41163100       0.54184120       0.83002830
   176  C          0.58836900       0.04184120       0.66997170
   177  C          0.63207900       0.46769880       0.09363180
   178  C          0.36792100       0.96769880       0.40636820
   179  C          0.36792100       0.53230120       0.90636820
   180  C          0.63207900       0.03230120       0.59363180
   181  C          0.63787200       0.55919890       0.03942150
   182  C          0.36212800       0.05919890       0.46057850
   183  C          0.36212800       0.44080110       0.96057850
   184  C          0.63787200       0.94080110       0.53942150
   185  C          0.59800200       0.64000900       0.06344130
   186  C          0.40199800       0.14000900       0.43655870
   187  C          0.40199800       0.35999100       0.93655870
   188  C          0.59800200       0.85999100       0.56344130
   189  C          0.68436100       0.57058850       0.95908820
   190  C          0.31563900       0.07058850       0.54091180
   191  C          0.31563900       0.42941150       0.04091180
   192  C          0.68436100       0.92941150       0.45908820
   193  C          0.66949200       0.73489880       0.95144860
   194  C          0.33050800       0.23489880       0.54855140
   195  C          0.33050800       0.26510120       0.04855140
   196  C          0.66949200       0.76510120       0.45144860
   197  C          0.62325200       0.73312900       0.03158130
   198  C          0.37674800       0.23312900       0.46841870
   199  C          0.37674800       0.26687100       0.96841870
   200  C          0.62325200       0.76687100       0.53158130
   201  C          0.69317900       0.82445860       0.91599830
   202  C          0.30682100       0.32445860       0.58400170
   203  C          0.30682100       0.17554140       0.08400170
   204  C          0.69317900       0.67554140       0.41599830
   205  C          0.67754900       0.90810850       0.96574820
   206  C          0.32245100       0.40810850       0.53425180
   207  C          0.32245100       0.09189150       0.03425180
   208  C          0.67754900       0.59189150       0.46574820
   209  C          0.63814100       0.90702880       0.05476180
   210  C          0.36185900       0.40702880       0.44523820
   211  C          0.36185900       0.09297120       0.94523820
   212  C          0.63814100       0.59297120       0.55476180
   213  C          0.61102200       0.82124900       0.08596150
   214  C          0.38897800       0.32124900       0.41403850
   215  C          0.38897800       0.17875100       0.91403850
   216  C          0.61102200       0.67875100       0.58596150
   217  N          0.43755200       0.58069890       0.26550130
   218  N          0.56244800       0.08069890       0.23449870
   219  N          0.56244800       0.41930110       0.73449870
   220  N          0.43755200       0.91930110       0.76550130
   221  N          0.69690200       0.65173880       0.91048860
   222  N          0.30309800       0.15173880       0.58951140
   223  N          0.30309800       0.34826120       0.08951140
   224  N          0.69690200       0.84826120       0.41048860
   225  H          0.47911000       0.77289000       0.97058500
   226  H          0.52089000       0.27289000       0.52941500
   227  H          0.52089000       0.22711000       0.02941500
   228  H          0.47911000       0.72711000       0.47058500
   229  H          0.36831000       0.85928900       0.95158400
   230  H          0.63169000       0.35928900       0.54841600
   231  H          0.63169000       0.14071100       0.04841600
   232  H          0.36831000       0.64071100       0.45158400
   233  H          0.29108900       0.82118800       0.08531600
   234  H          0.70891100       0.32118800       0.41468400
   235  H          0.70891100       0.17881200       0.91468400
   236  H          0.29108900       0.67881200       0.58531600
   237  H          0.32838800       0.69278600       0.22881900
   238  H          0.67161200       0.19278600       0.27118100
   239  H          0.67161200       0.30721400       0.77118100
   240  H          0.32838800       0.80721400       0.72881900
   241  H          0.49879000       0.46638700       0.30841800
   242  H          0.50121000       0.96638700       0.19158200
   243  H          0.50121000       0.53361300       0.69158200
   244  H          0.49879000       0.03361300       0.80841800
   245  H          0.58669000       0.39818700       0.21301600
   246  H          0.41331000       0.89818700       0.28698400
   247  H          0.41331000       0.60181300       0.78698400
   248  H          0.58669000       0.10181300       0.71301600
   249  H          0.66359000       0.41928700       0.07431700
   250  H          0.33641000       0.91928700       0.42568300
   251  H          0.33641000       0.58071300       0.92568300
   252  H          0.66359000       0.08071300       0.57431700
   253  H          0.70588900       0.51388600       0.93578200
   254  H          0.29411100       0.01388600       0.56421800
   255  H          0.29411100       0.48611400       0.06421800
   256  H          0.70588900       0.98611400       0.43578200
   257  H          0.72468800       0.82238700       0.85538100
   258  H          0.27531200       0.32238700       0.64461900
   259  H          0.27531200       0.17761300       0.14461900
   260  H          0.72468800       0.67761300       0.35538100
   261  H          0.69229000       0.96908700       0.94538300
   262  H          0.30771000       0.46908700       0.55461700
   263  H          0.30771000       0.03091300       0.05461700
   264  H          0.69229000       0.53091300       0.44538300
   265  H          0.62779000       0.96818700       0.09681700
   266  H          0.37221000       0.46818700       0.40318300
   267  H          0.37221000       0.03181300       0.90318300
   268  H          0.62779000       0.53181300       0.59681700
   269  H          0.58481000       0.81919000       0.14941400
   270  H          0.41519000       0.31919000       0.35058600
   271  H          0.41519000       0.18081000       0.85058600
   272  H          0.58481000       0.68081000       0.64941400
