data_BOLMIZ02
_symmetry_space_group_name_H-M    'P1'
_symmetry_Int_Tables_number       1
loop_
_symmetry_equiv_pos_site_id
_symmetry_equiv_pos_as_xyz
1 x,y,z
_cell_length_a                   16.062311
_cell_length_b                   7.83365
_cell_length_c                   21.484114
_cell_angle_alpha                90.0
_cell_angle_beta                 90.0
_cell_angle_gamma                90.0
loop_
_atom_site_label
_atom_site_type_symbol
_atom_site_fract_x
_atom_site_fract_y
_atom_site_fract_z
     1  C          0.96963300       0.26587160       0.85402500
     2  C          0.53036700       0.23412840       0.35402500
     3  C          0.46963300       0.23412840       0.14597500
     4  C          0.03036700       0.26587160       0.64597500
     5  C          0.03036700       0.73412840       0.14597500
     6  C          0.46963300       0.76587160       0.64597500
     7  C          0.53036700       0.76587160       0.85402500
     8  C          0.96963300       0.73412840       0.35402500
     9  C          0.96717200       0.42975170       0.83213400
    10  C          0.53282800       0.07024830       0.33213400
    11  C          0.46717200       0.07024830       0.16786600
    12  C          0.03282800       0.42975170       0.66786600
    13  C          0.03282800       0.57024830       0.16786600
    14  C          0.46717200       0.92975170       0.66786600
    15  C          0.53282800       0.92975170       0.83213400
    16  C          0.96717200       0.57024830       0.33213400
    17  C          0.04097900       0.51793190       0.81908400
    18  C          0.45902100       0.98206810       0.31908400
    19  C          0.54097900       0.98206810       0.18091600
    20  C          0.95902100       0.51793190       0.68091600
    21  C          0.95902100       0.48206810       0.18091600
    22  C          0.54097900       0.01793190       0.68091600
    23  C          0.45902100       0.01793190       0.81908400
    24  C          0.04097900       0.48206810       0.31908400
    25  C          0.11589800       0.44040180       0.82925400
    26  C          0.38410200       0.05959820       0.32925400
    27  C          0.61589800       0.05959820       0.17074600
    28  C          0.88410200       0.44040180       0.67074600
    29  C          0.88410200       0.55959820       0.17074600
    30  C          0.61589800       0.94040180       0.67074600
    31  C          0.38410200       0.94040180       0.82925400
    32  C          0.11589800       0.55959820       0.32925400
    33  C          0.12002700       0.27516170       0.85424500
    34  C          0.37997300       0.22483830       0.35424500
    35  C          0.62002700       0.22483830       0.14575500
    36  C          0.87997300       0.27516170       0.64575500
    37  C          0.87997300       0.72483830       0.14575500
    38  C          0.62002700       0.77516170       0.64575500
    39  C          0.37997300       0.77516170       0.85424500
    40  C          0.12002700       0.72483830       0.35424500
    41  C          0.04588600       0.18078150       0.86562500
    42  C          0.45411400       0.31921850       0.36562500
    43  C          0.54588600       0.31921850       0.13437500
    44  C          0.95411400       0.18078150       0.63437500
    45  C          0.95411400       0.81921850       0.13437500
    46  C          0.54588600       0.68078150       0.63437500
    47  C          0.45411400       0.68078150       0.86562500
    48  C          0.04588600       0.81921850       0.36562500
    49  C          0.20100700       0.08351180       0.90616400
    50  C          0.29899300       0.41648820       0.40616400
    51  C          0.70100700       0.41648820       0.09383600
    52  C          0.79899300       0.08351180       0.59383600
    53  C          0.79899300       0.91648820       0.09383600
    54  C          0.70100700       0.58351180       0.59383600
    55  C          0.29899300       0.58351180       0.90616400
    56  C          0.20100700       0.91648820       0.40616400
    57  C          0.13079700       0.98134850       0.92387500
    58  C          0.36920300       0.51865150       0.42387500
    59  C          0.63079700       0.51865150       0.07612500
    60  C          0.86920300       0.98134850       0.57612500
    61  C          0.86920300       0.01865150       0.07612500
    62  C          0.63079700       0.48134850       0.57612500
    63  C          0.36920300       0.48134850       0.92387500
    64  C          0.13079700       0.01865150       0.42387500
    65  C          0.05262600       0.01695150       0.89670500
    66  C          0.44737400       0.48304850       0.39670500
    67  C          0.55262600       0.48304850       0.10329500
    68  C          0.94737400       0.01695150       0.60329500
    69  C          0.94737400      -0.01695150       0.10329500
    70  C          0.55262600       0.51695150       0.60329500
    71  C          0.44737400       0.51695150       0.89670500
    72  C          0.05262600      -0.01695150       0.39670500
    73  C          0.14071800       0.85168820       0.96926400
    74  C          0.35928200       0.64831180       0.46926400
    75  C          0.64071800       0.64831180       0.03073600
    76  C          0.85928200       0.85168820       0.53073600
    77  C          0.85928200       0.14831180       0.03073600
    78  C          0.64071800       0.35168820       0.53073600
    79  C          0.35928200       0.35168820       0.96926400
    80  C          0.14071800       0.14831180       0.46926400
    81  C          0.07344900       0.76481830       0.98946400
    82  C          0.42655100       0.73518170       0.48946400
    83  C          0.57344900       0.73518170       0.01053600
    84  C          0.92655100       0.76481830       0.51053600
    85  C          0.92655100       0.23518170       0.01053600
    86  C          0.57344900       0.26481830       0.51053600
    87  C          0.42655100       0.26481830       0.98946400
    88  C          0.07344900       0.23518170       0.48946400
    89  C         -0.00471800       0.78525850       0.95899500
    90  C          0.50471800       0.71474150       0.45899500
    91  C          0.49528200       0.71474150       0.04100500
    92  C          0.00471800       0.78525850       0.54100500
    93  C          0.00471800       0.21474150       0.04100500
    94  C          0.49528200       0.28525850       0.54100500
    95  C          0.50471800       0.28525850       0.95899500
    96  C         -0.00471800       0.21474150       0.45899500
    97  C          0.98590300       0.89730860       0.90860500
    98  C          0.51409700       0.60269140       0.40860500
    99  C          0.48590300       0.60269140       0.09139500
   100  C          0.01409700       0.89730860       0.59139500
   101  C          0.01409700       0.10269140       0.09139500
   102  C          0.48590300       0.39730860       0.59139500
   103  C          0.51409700       0.39730860       0.90860500
   104  C          0.98590300       0.10269140       0.40860500
   105  C          0.92457100       0.68927830       0.97942400
   106  C          0.57542900       0.81072170       0.47942400
   107  C          0.42457100       0.81072170       0.02057600
   108  C          0.07542900       0.68927830       0.52057600
   109  C          0.07542900       0.31072170       0.02057600
   110  C          0.42457100       0.18927830       0.52057600
   111  C          0.57542900       0.18927830       0.97942400
   112  C          0.92457100       0.31072170       0.47942400
   113  C          0.84775300       0.76638850       0.89482400
   114  C          0.65224700       0.73361150       0.39482400
   115  C          0.34775300       0.73361150       0.10517600
   116  C          0.15224700       0.76638850       0.60517600
   117  C          0.15224700       0.23361150       0.10517600
   118  C          0.34775300       0.26638850       0.60517600
   119  C          0.65224700       0.26638850       0.89482400
   120  C          0.84775300       0.23361150       0.39482400
   121  C          0.91171400       0.87171850       0.87072500
   122  C          0.58828600       0.62828150       0.37072500
   123  C          0.41171400       0.62828150       0.12927500
   124  C          0.08828600       0.87171850       0.62927500
   125  C          0.08828600       0.12828150       0.12927500
   126  C          0.41171400       0.37171850       0.62927500
   127  C          0.58828600       0.37171850       0.87072500
   128  C          0.91171400       0.12828150       0.37072500
   129  C          0.77663200       0.73189810       0.85826200
   130  C          0.72336800       0.76810190       0.35826200
   131  C          0.27663200       0.76810190       0.14173800
   132  C          0.22336800       0.73189810       0.64173800
   133  C          0.22336800       0.26810190       0.14173800
   134  C          0.27663200       0.23189810       0.64173800
   135  C          0.72336800       0.23189810       0.85826200
   136  C          0.77663200       0.26810190       0.35826200
   137  C          0.77075200       0.78975810       0.79858200
   138  C          0.72924800       0.71024190       0.29858200
   139  C          0.27075200       0.71024190       0.20141800
   140  C          0.22924800       0.78975810       0.70141800
   141  C          0.22924800       0.21024190       0.20141800
   142  C          0.27075200       0.28975810       0.70141800
   143  C          0.72924800       0.28975810       0.79858200
   144  C          0.77075200       0.21024190       0.29858200
   145  C          0.83582200       0.88460820       0.77283300
   146  C          0.66417800       0.61539180       0.27283300
   147  C          0.33582200       0.61539180       0.22716700
   148  C          0.16417800       0.88460820       0.72716700
   149  C          0.16417800       0.11539180       0.22716700
   150  C          0.33582200       0.38460820       0.72716700
   151  C          0.66417800       0.38460820       0.77283300
   152  C          0.83582200       0.11539180       0.27283300
   153  C          0.90431300       0.92580840       0.80818400
   154  C          0.59568700       0.57419160       0.30818400
   155  C          0.40431300       0.57419160       0.19181600
   156  C          0.09568700       0.92580840       0.69181600
   157  C          0.09568700       0.07419160       0.19181600
   158  C          0.40431300       0.42580840       0.69181600
   159  C          0.59568700       0.42580840       0.80818400
   160  C          0.90431300       0.07419160       0.30818400
   161  N          0.19856600       0.21758150       0.87124500
   162  N          0.30143400       0.28241850       0.37124500
   163  N          0.69856600       0.28241850       0.12875500
   164  N          0.80143400       0.21758150       0.62875500
   165  N          0.80143400       0.78241850       0.12875500
   166  N          0.69856600       0.71758150       0.62875500
   167  N          0.30143400       0.71758150       0.87124500
   168  N          0.19856600       0.78241850       0.37124500
   169  N          0.85287300       0.68391860       0.95166500
   170  N          0.64712700       0.81608140       0.45166500
   171  N          0.35287300       0.81608140       0.04833500
   172  N          0.14712700       0.68391860       0.54833500
   173  N          0.14712700       0.31608140       0.04833500
   174  N          0.35287300       0.18391860       0.54833500
   175  N          0.64712700       0.18391860       0.95166500
   176  N          0.85287300       0.31608140       0.45166500
   177  H          0.91752000       0.20631700       0.86484000
   178  H          0.58248000       0.29368300       0.36484000
   179  H          0.41752000       0.29368300       0.13516000
   180  H          0.08248000       0.20631700       0.63516000
   181  H          0.08248000       0.79368300       0.13516000
   182  H          0.41752000       0.70631700       0.63516000
   183  H          0.58248000       0.70631700       0.86484000
   184  H          0.91752000       0.79368300       0.36484000
   185  H          0.91301000       0.48551900       0.82534000
   186  H          0.58699000       0.01448100       0.32534000
   187  H          0.41301000       0.01448100       0.17466000
   188  H          0.08699000       0.48551900       0.67466000
   189  H          0.08699000       0.51448100       0.17466000
   190  H          0.41301000      -0.01448100       0.67466000
   191  H          0.58699000      -0.01448100       0.82534000
   192  H          0.91301000       0.51448100       0.32534000
   193  H          0.03798000       0.63520000       0.80273000
   194  H          0.46202000       0.86480000       0.30273000
   195  H          0.53798000       0.86480000       0.19727000
   196  H          0.96202000       0.63520000       0.69727000
   197  H          0.96202000       0.36480000       0.19727000
   198  H          0.53798000       0.13520000       0.69727000
   199  H          0.46202000       0.13520000       0.80273000
   200  H          0.03798000       0.36480000       0.30273000
   201  H          0.16841000       0.50120000       0.82023000
   202  H          0.33159000      -0.00120000       0.32023000
   203  H          0.66841000      -0.00120000       0.17977000
   204  H          0.83159000       0.50120000       0.67977000
   205  H          0.83159000       0.49880000       0.17977000
   206  H          0.66841000       0.00120000       0.67977000
   207  H          0.33159000       0.00120000       0.82023000
   208  H          0.16841000       0.49880000       0.32023000
   209  H          0.25479000       0.04371800       0.92194000
   210  H          0.24521000       0.45628200       0.42194000
   211  H          0.75479000       0.45628200       0.07806000
   212  H          0.74521000       0.04371800       0.57806000
   213  H          0.74521000       0.95628200       0.07806000
   214  H          0.75479000       0.54371800       0.57806000
   215  H          0.24521000       0.54371800       0.92194000
   216  H          0.25479000       0.95628200       0.42194000
   217  H          0.19681000       0.83180000       0.98663000
   218  H          0.30319000       0.66820000       0.48663000
   219  H          0.69681000       0.66820000       0.01337000
   220  H          0.80319000       0.83180000       0.51337000
   221  H          0.80319000       0.16820000       0.01337000
   222  H          0.69681000       0.33180000       0.51337000
   223  H          0.30319000       0.33180000       0.98663000
   224  H          0.19681000       0.16820000       0.48663000
   225  H          0.07769000       0.68480000       0.02207000
   226  H          0.42231000       0.81520000       0.52207000
   227  H          0.57769000       0.81520000       0.97793000
   228  H          0.92231000       0.68480000       0.47793000
   229  H          0.92231000       0.31520000       0.97793000
   230  H          0.57769000       0.18480000       0.47793000
   231  H          0.42231000       0.18480000       0.02207000
   232  H          0.07769000       0.31520000       0.52207000
   233  H          0.93141000       0.62380000       0.01777000
   234  H          0.56859000       0.87620000       0.51777000
   235  H          0.43141000       0.87620000       0.98223000
   236  H          0.06859000       0.62380000       0.48223000
   237  H          0.06859000       0.37620000       0.98223000
   238  H          0.43141000       0.12380000       0.48223000
   239  H          0.56859000       0.12380000       0.01777000
   240  H          0.93141000       0.37620000       0.51777000
   241  H          0.73549000       0.65380000       0.87743000
   242  H          0.76451000       0.84620000       0.37743000
   243  H          0.23549000       0.84620000       0.12257000
   244  H          0.26451000       0.65380000       0.62257000
   245  H          0.26451000       0.34620000       0.12257000
   246  H          0.23549000       0.15380000       0.62257000
   247  H          0.76451000       0.15380000       0.87743000
   248  H          0.73549000       0.34620000       0.37743000
   249  H          0.72221000       0.75880000       0.77252000
   250  H          0.77779000       0.74120000       0.27252000
   251  H          0.22221000       0.74120000       0.22748000
   252  H          0.27779000       0.75880000       0.72748000
   253  H          0.27779000       0.24120000       0.22748000
   254  H          0.22221000       0.25880000       0.72748000
   255  H          0.77779000       0.25880000       0.77252000
   256  H          0.72221000       0.24120000       0.27252000
   257  H          0.83381000       0.92080000       0.72823000
   258  H          0.66619000       0.57920000       0.22823000
   259  H          0.33381000       0.57920000       0.27177000
   260  H          0.16619000       0.92080000       0.77177000
   261  H          0.16619000       0.07920000       0.27177000
   262  H          0.33381000       0.42080000       0.77177000
   263  H          0.66619000       0.42080000       0.72823000
   264  H          0.83381000       0.07920000       0.22823000
   265  H          0.95022000      -0.00581800       0.78914000
   266  H          0.54978000       0.50581800       0.28914000
   267  H          0.45022000       0.50581800       0.21086000
   268  H          0.04978000      -0.00581800       0.71086000
   269  H          0.04978000       0.00581800       0.21086000
   270  H          0.45022000       0.49418200       0.71086000
   271  H          0.54978000       0.49418200       0.78914000
   272  H          0.95022000       0.00581800       0.28914000
