data_BOLMIZ01
_symmetry_space_group_name_H-M    'P1'
_symmetry_Int_Tables_number       1
loop_
_symmetry_equiv_pos_site_id
_symmetry_equiv_pos_as_xyz
1 x,y,z
_cell_length_a                   20.35206
_cell_length_b                   9.09123
_cell_length_c                   7.54002
_cell_angle_alpha                90.0
_cell_angle_beta                 92.28001
_cell_angle_gamma                90.0
loop_
_atom_site_label
_atom_site_type_symbol
_atom_site_fract_x
_atom_site_fract_y
_atom_site_fract_z
     1  C          0.43753800       0.36612000       0.34582000
     2  C          0.93753800       0.86612000       0.34582000
     3  C          0.56246200       0.36612000       0.15418000
     4  C          0.06246200       0.86612000       0.15418000
     5  C          0.56246200       0.63388000       0.65418000
     6  C          0.06246200       0.13388000       0.65418000
     7  C          0.43753800       0.63388000       0.84582000
     8  C          0.93753800       0.13388000       0.84582000
     9  H          0.48030000       0.37850000       0.39150000
    10  H          0.98030000       0.87850000       0.39150000
    11  H          0.51970000       0.37850000       0.10850000
    12  H          0.01970000       0.87850000       0.10850000
    13  H          0.51970000       0.62150000       0.60850000
    14  H          0.01970000       0.12150000       0.60850000
    15  H          0.48030000       0.62150000       0.89150000
    16  H          0.98030000       0.12150000       0.89150000
    17  C          0.39238900       0.47442000       0.37013000
    18  C          0.89238900       0.97442000       0.37013000
    19  C          0.60761100       0.47442000       0.12987000
    20  C          0.10761100       0.97442000       0.12987000
    21  C          0.60761100       0.52558000       0.62987000
    22  C          0.10761100       0.02558000       0.62987000
    23  C          0.39238900       0.52558000       0.87013000
    24  C          0.89238900       0.02558000       0.87013000
    25  H          0.40470000       0.55840000       0.43340000
    26  H          0.90470000       0.05840000       0.43340000
    27  H          0.59530000       0.55840000       0.06660000
    28  H          0.09530000       0.05840000       0.06660000
    29  H          0.59530000       0.44160000       0.56660000
    30  H          0.09530000       0.94160000       0.56660000
    31  H          0.40470000       0.44160000       0.93340000
    32  H          0.90470000       0.94160000       0.93340000
    33  C          0.32790100       0.46073000       0.30113000
    34  C          0.82790100       0.96073000       0.30113000
    35  C          0.67209900       0.46073000       0.19887000
    36  C          0.17209900       0.96073000       0.19887000
    37  C          0.67209900       0.53927000       0.69887000
    38  C          0.17209900       0.03927000       0.69887000
    39  C          0.32790100       0.53927000       0.80113000
    40  C          0.82790100       0.03927000       0.80113000
    41  H          0.29790000       0.53680000       0.31410000
    42  H          0.79790000       0.03680000       0.31410000
    43  H          0.70210000       0.53680000       0.18590000
    44  H          0.20210000       0.03680000       0.18590000
    45  H          0.70210000       0.46320000       0.68590000
    46  H          0.20210000       0.96320000       0.68590000
    47  H          0.29790000       0.46320000       0.81410000
    48  H          0.79790000       0.96320000       0.81410000
    49  C          0.30958900       0.33553000       0.21503000
    50  C          0.80958900       0.83553000       0.21503000
    51  C          0.69041100       0.33553000       0.28497000
    52  C          0.19041100       0.83553000       0.28497000
    53  C          0.69041100       0.66447000       0.78497000
    54  C          0.19041100       0.16447000       0.78497000
    55  C          0.30958900       0.66447000       0.71503000
    56  C          0.80958900       0.16447000       0.71503000
    57  H          0.26670000       0.32610000       0.16930000
    58  H          0.76670000       0.82610000       0.16930000
    59  H          0.73330000       0.32610000       0.33070000
    60  H          0.23330000       0.82610000       0.33070000
    61  H          0.73330000       0.67390000       0.83070000
    62  H          0.23330000       0.17390000       0.83070000
    63  H          0.26670000       0.67390000       0.66930000
    64  H          0.76670000       0.17390000       0.66930000
    65  C          0.36699120       0.97607000       0.13273000
    66  C          0.86699120       0.47607000       0.13273000
    67  C          0.63300880       0.97607000       0.36727000
    68  C          0.13300880       0.47607000       0.36727000
    69  C          0.63300880       0.02393000       0.86727000
    70  C          0.13300880       0.52393000       0.86727000
    71  C          0.36699120       0.02393000       0.63273000
    72  C          0.86699120       0.52393000       0.63273000
    73  H          0.34910000       0.88650000       0.09640000
    74  H          0.84910000       0.38650000       0.09640000
    75  H          0.65090000       0.88650000       0.40360000
    76  H          0.15090000       0.38650000       0.40360000
    77  H          0.65090000       0.11350000       0.90360000
    78  H          0.15090000       0.61350000       0.90360000
    79  H          0.34910000       0.11350000       0.59640000
    80  H          0.84910000       0.61350000       0.59640000
    81  C          0.46845120       0.84138000       0.21763000
    82  C          0.96845120       0.34138000       0.21763000
    83  C          0.53154880       0.84138000       0.28237000
    84  C          0.03154880       0.34138000       0.28237000
    85  C          0.53154880       0.15862000       0.78237000
    86  C          0.03154880       0.65862000       0.78237000
    87  C          0.46845120       0.15862000       0.71763000
    88  C          0.96845120       0.65862000       0.71763000
    89  H          0.44770000       0.75310000       0.18830000
    90  H          0.94770000       0.25310000       0.18830000
    91  H          0.55230000       0.75310000       0.31170000
    92  H          0.05230000       0.25310000       0.31170000
    93  H          0.55230000       0.24690000       0.81170000
    94  H          0.05230000       0.74690000       0.81170000
    95  H          0.44770000       0.24690000       0.68830000
    96  H          0.94770000       0.74690000       0.68830000
    97  C          0.42084800       0.23622000       0.25312000
    98  C          0.92084800       0.73622000       0.25312000
    99  C          0.57915200       0.23622000       0.24688000
   100  C          0.07915200       0.73622000       0.24688000
   101  C          0.57915200       0.76378000       0.74688000
   102  C          0.07915200       0.26378000       0.74688000
   103  C          0.42084800       0.76378000       0.75312000
   104  C          0.92084800       0.26378000       0.75312000
   105  C          0.35410900       0.21972000       0.19353000
   106  C          0.85410900       0.71972000       0.19353000
   107  C          0.64589100       0.21972000       0.30647000
   108  C          0.14589100       0.71972000       0.30647000
   109  C          0.64589100       0.78028000       0.80647000
   110  C          0.14589100       0.28028000       0.80647000
   111  C          0.35410900       0.78028000       0.69353000
   112  C          0.85410900       0.28028000       0.69353000
   113  C          0.46458800       0.11180190       0.23422000
   114  C          0.96458800       0.61180190       0.23422000
   115  C          0.53541200       0.11180190       0.26578000
   116  C          0.03541200       0.61180190       0.26578000
   117  C          0.53541200       0.88819810       0.76578000
   118  C          0.03541200       0.38819810       0.76578000
   119  C          0.46458800       0.88819810       0.73422000
   120  C          0.96458800       0.38819810       0.73422000
   121  C          0.43424110       0.97588000       0.19463000
   122  C          0.93424110       0.47588000       0.19463000
   123  C          0.56575890       0.97588000       0.30537000
   124  C          0.06575890       0.47588000       0.30537000
   125  C          0.56575890       0.02412000       0.80537000
   126  C          0.06575890       0.52412000       0.80537000
   127  C          0.43424110       0.02412000       0.69463000
   128  C          0.93424110       0.52412000       0.69463000
   129  N          0.32885900       0.08963000       0.12273000
   130  N          0.82885900       0.58963000       0.12273000
   131  N          0.67114100       0.08963000       0.37727000
   132  N          0.17114100       0.58963000       0.37727000
   133  N          0.67114100       0.91037000       0.87727000
   134  N          0.17114100       0.41037000       0.87727000
   135  N          0.32885900       0.91037000       0.62273000
   136  N          0.82885900       0.41037000       0.62273000
