data_BOQHOE02
_symmetry_space_group_name_H-M    'P1'
_symmetry_Int_Tables_number       1
loop_
_symmetry_equiv_pos_site_id
_symmetry_equiv_pos_as_xyz
1 x,y,z
_cell_length_a                   4.98874
_cell_length_b                   5.63505
_cell_length_c                   10.91758
_cell_angle_alpha                81.6126
_cell_angle_beta                 80.7266
_cell_angle_gamma                77.4997
loop_
_atom_site_label
_atom_site_type_symbol
_atom_site_fract_x
_atom_site_fract_y
_atom_site_fract_z
     1  Cl         0.79297180       0.78091160       0.65235700
     2  Cl         0.20702820       0.21908840       0.34764300
     3  C          0.63515000       0.63165000       0.56632000
     4  C          0.36485000       0.36835000       0.43368000
     5  C          0.47216000       0.45975000       0.63382000
     6  C          0.52784000       0.54025000       0.36618000
     7  C          0.33166000       0.32835000       0.55932000
     8  C          0.66834000       0.67165000       0.44068000
     9  O          0.17855000       0.17664000       0.62204180
    10  O          0.82145000       0.82336000       0.37795820
    11  O          0.43915000       0.41574000       0.74711150
    12  O          0.56085000       0.58426000       0.25288850
    13  H          0.17470000       0.15770000       0.69630000
    14  H          0.82530000       0.84230000       0.30370000
    15  N          0.92726000       0.93806000       0.12702000
    16  N          0.07274000       0.06194000       0.87298000
    17  C          0.10481100       0.79169000       0.05884000
    18  C          0.89518900       0.20831000       0.94116000
    19  C          0.17841000       0.85509000       0.93057000
    20  C          0.82159000       0.14491000       0.06943000
    21  H          0.18610000       0.64490000       0.10140000
    22  H          0.81390000       0.35510000       0.89860000
    23  H          0.31390000       0.74280000       0.88460000
    24  H          0.68610000       0.25720000       0.11540000
    25  H          0.68790000       0.25880000       0.11540000
    26  H          0.31210000       0.74120000       0.88460000
