data_BOQHOE
_symmetry_space_group_name_H-M    'P1'
_symmetry_Int_Tables_number       1
loop_
_symmetry_equiv_pos_site_id
_symmetry_equiv_pos_as_xyz
1 x,y,z
_cell_length_a                   8.2965
_cell_length_b                   6.6542
_cell_length_c                   10.9932
_cell_angle_alpha                90.0
_cell_angle_beta                 101.603
_cell_angle_gamma                90.0
loop_
_atom_site_label
_atom_site_type_symbol
_atom_site_fract_x
_atom_site_fract_y
_atom_site_fract_z
     1  Cl         0.28789600       0.50000000       0.85075600
     2  Cl         0.78789600       0.00000000       0.85075600
     3  Cl         0.71210400       0.50000000       0.14924400
     4  Cl         0.21210400      -0.00000000       0.14924400
     5  O          0.92678000       0.50000000       0.75439000
     6  O          0.42678000       0.00000000       0.75439000
     7  O          0.07322000       0.50000000       0.24561000
     8  O          0.57322000       0.00000000       0.24561000
     9  O          0.32232000       0.50000000       0.12351000
    10  O          0.82232000       0.00000000       0.12351000
    11  O          0.67768000       0.50000000       0.87649000
    12  O          0.17768000       0.00000000       0.87649000
    13  C          0.96628000       0.50000000       0.86739000
    14  C          0.46628000       0.00000000       0.86739000
    15  C          0.03372000       0.50000000       0.13261000
    16  C          0.53372000      -0.00000000       0.13261000
    17  C          0.13402000       0.50000000       0.93509000
    18  C          0.63402000       0.00000000       0.93509000
    19  C          0.86598000       0.50000000       0.06491000
    20  C          0.36598000      -0.00000000       0.06491000
    21  C          0.17032000       0.50000000       0.06031000
    22  C          0.67032000      -0.00000000       0.06031000
    23  C          0.82968000       0.50000000       0.93969000
    24  C          0.32968000       0.00000000       0.93969000
    25  H          0.32030000       0.50000000       0.19720000
    26  H          0.82030000       0.00000000       0.19720000
    27  H          0.67970000       0.50000000       0.80280000
    28  H          0.17970000       0.00000000       0.80280000
    29  N          0.43372000       0.50000000       0.37371000
    30  N          0.93372000       0.00000000       0.37371000
    31  N          0.56628000       0.50000000       0.62629000
    32  N          0.06628000       0.00000000       0.62629000
    33  C          0.46604000       0.66214000       0.43702000
    34  C          0.96604000       0.16214000       0.43702000
    35  C          0.53396000       0.66214000       0.56298000
    36  C          0.03396000       0.16214000       0.56298000
    37  C          0.53396000       0.33786000       0.56298000
    38  C          0.03396000       0.83786000       0.56298000
    39  C          0.46604000       0.33786000       0.43702000
    40  C          0.96604000       0.83786000       0.43702000
    41  H          0.43130000       0.79550000       0.39220000
    42  H          0.93130000       0.29550000       0.39220000
    43  H          0.56870000       0.79550000       0.60780000
    44  H          0.06870000       0.29550000       0.60780000
    45  H          0.56870000       0.20450000       0.60780000
    46  H          0.06870000       0.70450000       0.60780000
    47  H          0.43130000       0.20450000       0.39220000
    48  H          0.93130000       0.70450000       0.39220000
