data_BOQHOE01
_symmetry_space_group_name_H-M    'P1'
_symmetry_Int_Tables_number       1
loop_
_symmetry_equiv_pos_site_id
_symmetry_equiv_pos_as_xyz
1 x,y,z
_cell_length_a                   4.78215
_cell_length_b                   5.82586
_cell_length_c                   10.70181
_cell_angle_alpha                81.9268
_cell_angle_beta                 81.5688
_cell_angle_gamma                76.9938
loop_
_atom_site_label
_atom_site_type_symbol
_atom_site_fract_x
_atom_site_fract_y
_atom_site_fract_z
     1  Cl         0.79563000       0.77042000       0.66180120
     2  Cl         0.20437000       0.22958000       0.33819880
     3  C          0.63621000       0.62898000       0.57074000
     4  C          0.36379000       0.37102000       0.42926000
     5  C          0.47911000       0.45079000       0.63534000
     6  C          0.52089000       0.54921000       0.36466000
     7  C          0.33631000       0.32498000       0.55664000
     8  C          0.66369000       0.67502000       0.44336000
     9  O          0.18648000       0.17156000       0.61783000
    10  O          0.81352000       0.82844000       0.38217000
    11  O          0.45398000       0.39857000       0.75023000
    12  O          0.54602000       0.60143000       0.24977000
    13  H          0.19317000       0.15015000       0.70380000
    14  H          0.80683000       0.84985000       0.29620000
    15  H          0.80717000       0.85015000       0.29780000
    16  H          0.19283000       0.14985000       0.70220000
    17  N          0.91471100       0.94669000       0.12824000
    18  N          0.08528900       0.05331000       0.87176000
    19  C          0.07961300       0.78311100       0.05715000
    20  C          0.92038700       0.21688900       0.94285000
    21  C          0.16301200       0.83589000       0.92975000
    22  C          0.83698800       0.16411000       0.07025000
    23  H          0.14214000       0.64912000       0.08860000
    24  H          0.85786000       0.35088000       0.91140000
    25  H          0.31813000       0.70911000       0.87860000
    26  H          0.68187000       0.29089000       0.12140000
    27  H          0.85814000       0.35112000       0.91260000
    28  H          0.14186000       0.64888000       0.08740000
    29  H          0.68213000       0.29111000       0.12260000
    30  H          0.31787000       0.70889000       0.87740000
