data_BOWRUC02
_symmetry_space_group_name_H-M    'P1'
_symmetry_Int_Tables_number       1
loop_
_symmetry_equiv_pos_site_id
_symmetry_equiv_pos_as_xyz
1 x,y,z
_cell_length_a                   13.75512
_cell_length_b                   18.5304
_cell_length_c                   9.2625
_cell_angle_alpha                90.0
_cell_angle_beta                 108.918
_cell_angle_gamma                90.0
loop_
_atom_site_label
_atom_site_type_symbol
_atom_site_fract_x
_atom_site_fract_y
_atom_site_fract_z
     1  I          0.24847000       0.48422000       0.87427000
     2  I          0.75153000       0.98422000       0.62573000
     3  I          0.75153000       0.51578000       0.12573000
     4  I          0.24847000       0.01578000       0.37427000
     5  I          0.52587000       0.40502000       0.90367000
     6  I          0.47413000       0.90502000       0.59633000
     7  I          0.47413000       0.59498000       0.09633000
     8  I          0.52587000       0.09498000       0.40367000
     9  I          0.18657000       0.24232000       0.43077000
    10  I          0.81343000       0.74232000       0.06923000
    11  I          0.81343000       0.75768000       0.56923000
    12  I          0.18657000       0.25768000       0.93077000
    13  N          0.20740000       0.36620000       0.64950000
    14  N          0.79260000       0.86620000       0.85050000
    15  N          0.79260000       0.63380000       0.35050000
    16  N          0.20740000       0.13380000       0.14950000
    17  C          0.28450000       0.40511500       0.76250000
    18  C          0.71550000       0.90511500       0.73750000
    19  C          0.71550000       0.59488500       0.23750000
    20  C          0.28450000       0.09488500       0.26250000
    21  C          0.38040000       0.37151700       0.78040000
    22  C          0.61960000       0.87151700       0.71960000
    23  C          0.61960000       0.62848300       0.21960000
    24  C          0.38040000       0.12848300       0.28040000
    25  N          0.36340000       0.31211300       0.67840000
    26  N          0.63660000       0.81211300       0.82160000
    27  N          0.63660000       0.68788700       0.32160000
    28  N          0.36340000       0.18788700       0.17840000
    29  H          0.40860000       0.28310000       0.66750000
    30  H          0.59140000       0.78310000       0.83250000
    31  H          0.59140000       0.71690000       0.33250000
    32  H          0.40860000       0.21690000       0.16750000
    33  C          0.25640000       0.30891800       0.59740000
    34  C          0.74360000       0.80891800       0.90260000
    35  C          0.74360000       0.69108200       0.40260000
    36  C          0.25640000       0.19108200       0.09740000
    37  I          0.83477000       0.34793000      -0.00587000
    38  I          0.16523000       0.84793000       0.50587000
    39  I          0.16523000       0.65207000       0.00587000
    40  I          0.83477000       0.15207000       0.49413000
    41  I          0.10577000       0.43532000       0.15718000
    42  I          0.89423000       0.93532000       0.34282000
    43  I          0.89423000       0.56468000       0.84282000
    44  I          0.10577000       0.06468000       0.65718000
    45  I          0.94898000       0.36653000       0.67778000
    46  I          0.05102000       0.86653000       0.82222000
    47  I          0.05102000       0.63347000       0.32222000
    48  I          0.94898000       0.13347000       0.17778000
    49  C          0.90440000       0.37220000       0.21240000
    50  C          0.09560000       0.87220000       0.28760000
    51  C          0.09560000       0.62780000       0.78760000
    52  C          0.90440000       0.12780000       0.71240000
    53  N          0.87440000       0.35451900       0.34060000
    54  N          0.12560000       0.85451900       0.15940000
    55  N          0.12560000       0.64548100       0.65940000
    56  N          0.87440000       0.14548100       0.84060000
    57  C          0.95650000       0.37420000       0.47440000
    58  C          0.04350000       0.87420000       0.02560000
    59  C          0.04350000       0.62580000       0.52560000
    60  C          0.95650000       0.12580000       0.97440000
    61  N          0.03640000       0.40420000       0.42760000
    62  N          0.96360000       0.90420000       0.07240000
    63  N          0.96360000       0.59580000       0.57240000
    64  N          0.03640000       0.09580000       0.92760000
    65  H          0.09440000       0.41940000       0.48670000
    66  H          0.90560000       0.91940000       0.01330000
    67  H          0.90560000       0.58060000       0.51330000
    68  H          0.09440000       0.08060000      -0.01330000
    69  C          0.00440000       0.40320000       0.26560000
    70  C         -0.00440000       0.90320000       0.23440000
    71  C         -0.00440000       0.59680000       0.73440000
    72  C          0.00440000       0.09680000       0.76560000
    73  I          0.67336000       0.20192000       0.13647000
    74  I          0.32664000       0.70192000       0.36353000
    75  I          0.32664000       0.79808000       0.86353000
    76  I          0.67336000       0.29808000       0.63647000
    77  I          0.36517000       0.38182000       0.28598000
    78  I          0.63483000       0.88182000       0.21402000
    79  I          0.63483000       0.61818000       0.71402000
    80  I          0.36517000       0.11818000       0.78598000
    81  I          0.64097000       0.47562000       0.46517000
    82  I          0.35903000       0.97562000       0.03483000
    83  I          0.35903000       0.52438000       0.53483000
    84  I          0.64097000       0.02438000       0.96517000
    85  C          0.51340000       0.35730000       0.28760000
    86  C          0.48660000       0.85730000       0.21240000
    87  C          0.48660000       0.64270000       0.71240000
    88  C          0.51340000       0.14270000       0.78760000
    89  C          0.61050000       0.39081800       0.34560000
    90  C          0.38950000       0.89081800       0.15440000
    91  C          0.38950000       0.60918200       0.65440000
    92  C          0.61050000       0.10918200       0.84560000
    93  N          0.68440000       0.34620000       0.31150000
    94  N          0.31560000       0.84620000       0.18850000
    95  N          0.31560000       0.65380000       0.68850000
    96  N          0.68440000       0.15380000       0.81150000
    97  H          0.74820000       0.35490000       0.33390000
    98  H          0.25180000       0.85490000       0.16610000
    99  H          0.25180000       0.64510000       0.66610000
   100  H          0.74820000       0.14510000       0.83390000
   101  C          0.63250000       0.28431600       0.23250000
   102  C          0.36750000       0.78431600       0.26750000
   103  C          0.36750000       0.71568400       0.76750000
   104  C          0.63250000       0.21568400       0.73250000
   105  N          0.52640000       0.29120000       0.21750000
   106  N          0.47360000       0.79120000       0.28250000
   107  N          0.47360000       0.70880000       0.78250000
   108  N          0.52640000       0.20880000       0.71750000
