data_BOWRUC03
_symmetry_space_group_name_H-M    'P1'
_symmetry_Int_Tables_number       1
loop_
_symmetry_equiv_pos_site_id
_symmetry_equiv_pos_as_xyz
1 x,y,z
_cell_length_a                   19.62051
_cell_length_b                   9.02093
_cell_length_c                   21.796911
_cell_angle_alpha                90.0
_cell_angle_beta                 116.2956
_cell_angle_gamma                90.0
loop_
_atom_site_label
_atom_site_type_symbol
_atom_site_fract_x
_atom_site_fract_y
_atom_site_fract_z
     1  I          0.36610400       0.42626800       0.34550400
     2  I          0.63389600       0.92626800       0.15449600
     3  I          0.63389600       0.57373200       0.65449600
     4  I          0.36610400       0.07373200       0.84550400
     5  I          0.14951500       0.41937900       0.20526500
     6  I          0.85048500       0.91937900       0.29473500
     7  I          0.85048500       0.58062100       0.79473500
     8  I          0.14951500       0.08062100       0.70526500
     9  I          0.27887500       0.80534900       0.24115600
    10  I          0.72112500       0.30534900       0.25884400
    11  I          0.72112500       0.19465100       0.75884400
    12  I          0.27887500       0.69465100       0.74115600
    13  N          0.20654000       0.10739000       0.21674000
    14  N          0.79346000       0.60739000       0.28326000
    15  N          0.79346000       0.89261000       0.78326000
    16  N          0.20654000       0.39261000       0.71674000
    17  C          0.26956000       0.03061100       0.24925000
    18  C          0.73044000       0.53061100       0.25075000
    19  C          0.73044000       0.96938900       0.75075000
    20  C          0.26956000       0.46938900       0.74925000
    21  C          0.30055000       0.25501100       0.28725000
    22  C          0.69945000       0.75501100       0.21275000
    23  C          0.69945000       0.74498900       0.71275000
    24  C          0.30055000       0.24498900       0.78725000
    25  C          0.22736000       0.24951100       0.24145000
    26  C          0.77264000       0.74951100       0.25855000
    27  C          0.77264000       0.75048900       0.75855000
    28  C          0.22736000       0.25048900       0.74145000
    29  N          0.32774000       0.11379000       0.29284000
    30  N          0.67226000       0.61379000       0.20716000
    31  N          0.67226000       0.88621000       0.70716000
    32  N          0.32774000       0.38621000       0.79284000
    33  H          0.37310000       0.08390000       0.31900000
    34  H          0.62690000       0.58390000       0.18100000
    35  H          0.62690000       0.91610000       0.68100000
    36  H          0.37310000       0.41610000       0.81900000
    37  I          0.74301500       0.94976900       0.58043400
    38  I          0.25698500       0.44976900       0.91956600
    39  I          0.25698500       0.05023100       0.41956600
    40  I          0.74301500       0.55023100       0.08043400
    41  I          0.83843500       0.31102900       0.60510500
    42  I          0.16156500       0.81102900       0.89489500
    43  I          0.16156500       0.68897100       0.39489500
    44  I          0.83843500       0.18897100       0.10510500
    45  I          0.64063600       0.37003120       0.43794500
    46  I          0.35936400       0.87003120       0.06205500
    47  I          0.35936400       0.62996880       0.56205500
    48  I          0.64063600       0.12996880       0.93794500
    49  N          0.79844000       0.63349000       0.59514000
    50  N          0.20156000       0.13349000       0.90486000
    51  N          0.20156000       0.36651000       0.40486000
    52  N          0.79844000       0.86651000       0.09514000
    53  H          0.84010000       0.65320000       0.63050000
    54  H          0.15990000       0.15320000       0.86950000
    55  H          0.15990000       0.34680000       0.36950000
    56  H          0.84010000       0.84680000       0.13050000
    57  C          0.74206000       0.72921100       0.55865000
    58  C          0.25794000       0.22921100       0.94135000
    59  C          0.25794000       0.27078900       0.44135000
    60  C          0.74206000       0.77078900       0.05865000
    61  C          0.70756000       0.51961200       0.51085000
    62  C          0.29244000       0.01961200       0.98915000
    63  C          0.29244000       0.48038800       0.48915000
    64  C          0.70756000       0.98038800       0.01085000
    65  C          0.77596000       0.50101100       0.56475000
    66  C          0.22404000       0.00101100       0.93525000
    67  C          0.22404000       0.49898900       0.43525000
    68  C          0.77596000      -0.00101100       0.06475000
    69  N          0.68705000       0.66521000       0.50704000
    70  N          0.31295000       0.16521000      -0.00704000
    71  N          0.31295000       0.33479000       0.49296000
    72  N          0.68705000       0.83479000       0.00704000
    73  I          0.45678400       0.78137900       0.45918400
    74  I          0.54321600       0.28137900       0.04081600
    75  I          0.54321600       0.21862100       0.54081600
    76  I          0.45678400       0.71862100       0.95918400
    77  I          0.69417400       0.93893110       0.36613400
    78  I          0.30582600       0.43893110       0.13386600
    79  I          0.30582600       0.06106890       0.63386600
    80  I          0.69417400       0.56106890       0.86613400
    81  I          0.50743500       0.18074100       0.26174400
    82  I          0.49256500       0.68074100       0.23825600
    83  I          0.49256500       0.81925900       0.73825600
    84  I          0.50743500       0.31925900       0.76174400
    85  N          0.47485000      -0.00991000       0.35844000
    86  N          0.52515000       0.49009000       0.14156000
    87  N          0.52515000       0.00991000       0.64156000
    88  N          0.47485000       0.50991000       0.85844000
    89  C          0.59195000       0.94551100       0.37035000
    90  C          0.40805000       0.44551100       0.12965000
    91  C          0.40805000       0.05448900       0.62965000
    92  C          0.59195000       0.55448900       0.87035000
    93  C          0.52825000       0.02391100       0.33665000
    94  C          0.47175000       0.52391100       0.16335000
    95  C          0.47175000       0.97608900       0.66335000
    96  C          0.52825000       0.47608900       0.83665000
    97  N          0.57694000       0.85259000       0.41374000
    98  N          0.42306000       0.35259000       0.08626000
    99  N          0.42306000       0.14741000       0.58626000
   100  N          0.57694000       0.64741000       0.91374000
   101  H          0.60730000       0.78770000       0.44120000
   102  H          0.39270000       0.28770000       0.05880000
   103  H          0.39270000       0.21230000       0.55880000
   104  H          0.60730000       0.71230000       0.94120000
   105  C          0.50696000       0.88281000       0.40485000
   106  C          0.49304000       0.38281000       0.09515000
   107  C          0.49304000       0.11719000       0.59515000
   108  C          0.50696000       0.61719000       0.90485000
   109  I          0.03490500       0.05017120       0.26387400
   110  I          0.96509500       0.55017120       0.23612600
   111  I          0.96509500       0.94982880       0.73612600
   112  I          0.03490500       0.44982880       0.76387400
   113  I          0.09673600       0.83430130       0.03280500
   114  I          0.90326400       0.33430130       0.46719500
   115  I          0.90326400       0.16569870       0.96719500
   116  I          0.09673600       0.66569870       0.53280500
   117  I          0.91702300       0.62701160       0.02532600
   118  I          0.08297700       0.12701160       0.47467400
   119  I          0.08297700       0.37298840       0.97467400
   120  I          0.91702300       0.87298840       0.52532600
   121  N          0.06915000       0.94621000       0.15085000
   122  N          0.93085000       0.44621000       0.34915000
   123  N          0.93085000       0.05379000       0.84915000
   124  N          0.06915000       0.55379000       0.65085000
   125  H          0.10760000       0.00470000       0.16440000
   126  H          0.89240000       0.50470000       0.33560000
   127  H          0.89240000      -0.00470000       0.83560000
   128  H          0.10760000       0.49530000       0.66440000
   129  C          0.98324000       0.78621300       0.09446000
   130  C          0.01676000       0.28621300       0.40554000
   131  C          0.01676000       0.21378700       0.90554000
   132  C          0.98324000       0.71378700       0.59446000
   133  C          0.04466000       0.85261400       0.09586000
   134  C          0.95534000       0.35261400       0.40414000
   135  C          0.95534000       0.14738600       0.90414000
   136  C          0.04466000       0.64738600       0.59586000
   137  N          0.96705000       0.83611000       0.14654000
   138  N          0.03295000       0.33611000       0.35346000
   139  N          0.03295000       0.16389000       0.85346000
   140  N          0.96705000       0.66389000       0.64654000
   141  C          0.02176000       0.92961300       0.17955000
   142  C          0.97824000       0.42961300       0.32045000
   143  C          0.97824000       0.07038700       0.82045000
   144  C          0.02176000       0.57038700       0.67955000
