data_BOWRUC
_symmetry_space_group_name_H-M    'P1'
_symmetry_Int_Tables_number       1
loop_
_symmetry_equiv_pos_site_id
_symmetry_equiv_pos_as_xyz
1 x,y,z
_cell_length_a                   9.45874
_cell_length_b                   22.08067
_cell_length_c                   14.08055
_cell_angle_alpha                90.0
_cell_angle_beta                 108.2194
_cell_angle_gamma                90.0
loop_
_atom_site_label
_atom_site_type_symbol
_atom_site_fract_x
_atom_site_fract_y
_atom_site_fract_z
     1  I          0.94311160       0.62000600       0.10997900
     2  I          0.55688840       0.12000600       0.89002100
     3  I          0.05688840       0.37999400       0.89002100
     4  I          0.44311160       0.87999400       0.10997900
     5  I          0.76539160       0.78865700       0.38808110
     6  I          0.73460840       0.28865700       0.61191890
     7  I          0.23460840       0.21134300       0.61191890
     8  I          0.26539160       0.71134300       0.38808110
     9  I          0.00593000       0.53952700       0.36986130
    10  I          0.49407000       0.03952700       0.63013870
    11  I         -0.00593000       0.46047300       0.63013870
    12  I          0.50593000       0.96047300       0.36986130
    13  N          0.88181300       0.66345000       0.38438000
    14  N          0.61818700       0.16345000       0.61562000
    15  N          0.11818700       0.33655000       0.61562000
    16  N          0.38181300       0.83655000       0.38438000
    17  H          0.88280000       0.65710000       0.44470000
    18  H          0.61720000       0.15710000       0.55530000
    19  H          0.11720000       0.34290000       0.55530000
    20  H          0.38280000       0.84290000       0.44470000
    21  N          0.84751300       0.71065000       0.23887000
    22  N          0.65248700       0.21065000       0.76113000
    23  N          0.15248700       0.28935000       0.76113000
    24  N          0.34751300       0.78935000       0.23887000
    25  C          0.92131800       0.62424000       0.32269000
    26  C          0.57868200       0.12424000       0.67731000
    27  C          0.07868200       0.37576000       0.67731000
    28  C          0.42131800       0.87576000       0.32269000
    29  C          0.84101600       0.71404000       0.32998000
    30  C          0.65898400       0.21404000       0.67002000
    31  C          0.15898400       0.28596000       0.67002000
    32  C          0.34101600       0.78596000       0.32998000
    33  C          0.89991500       0.65315000       0.23526000
    34  C          0.60008500       0.15315000       0.76474000
    35  C          0.10008500       0.34685000       0.76474000
    36  C          0.39991500       0.84685000       0.23526000
    37  I          0.77089170       0.56246700       0.81819100
    38  I          0.72910830       0.06246700       0.18180900
    39  I          0.22910830       0.43753300       0.18180900
    40  I          0.27089170       0.93753300       0.81819100
    41  I          0.61263160       0.57309700       0.52090100
    42  I          0.88736840       0.07309700       0.47909900
    43  I          0.38736840       0.42690300       0.47909900
    44  I          0.11263160       0.92690300       0.52090100
    45  N          0.88981400       0.64666000       0.58227000
    46  N          0.61018600       0.14666000       0.41773000
    47  N          0.11018600       0.35334000       0.41773000
    48  N          0.38981400       0.85334000       0.58227000
    49  N          0.98011300       0.64266000       0.74889000
    50  N          0.51988700       0.14266000       0.25111000
    51  N          0.01988700       0.35734000       0.25111000
    52  N          0.48011300       0.85734000       0.74889000
    53  H          0.04040000       0.64740000       0.80830000
    54  H          0.45960000       0.14740000       0.19170000
    55  H          0.95960000       0.35260000       0.19170000
    56  H          0.54040000       0.85260000       0.80830000
    57  C         -0.00718600       0.66478000       0.66301000
    58  C          0.50718600       0.16478000       0.33699000
    59  C          0.00718600       0.33522000       0.33699000
    60  C          0.49281400       0.83522000       0.66301000
    61  C          0.79971200       0.61216000       0.61997000
    62  C          0.70028800       0.11216000       0.38003000
    63  C          0.20028800       0.38784000       0.38003000
    64  C          0.29971200       0.88784000       0.61997000
    65  C          0.85061400       0.61106000       0.72047000
    66  C          0.64938600       0.11106000       0.27953000
    67  C          0.14938600       0.38894000       0.27953000
    68  C          0.35061400       0.88894000       0.72047000
    69  I          0.16652000       0.72198130       0.66553130
    70  I          0.33348000       0.22198130       0.33446870
    71  I          0.83348000       0.27801870       0.33446870
    72  I          0.66652000       0.77801870       0.66553130
    73  I          0.05373150       0.78675600       0.94675100
    74  I          0.44626850       0.28675600       0.05324900
    75  I          0.94626850       0.21324400       0.05324900
    76  I          0.55373150       0.71324400       0.94675100
    77  I          0.49053150       0.61130700       0.21399100
    78  I          0.00946850       0.11130700       0.78600900
    79  I          0.50946850       0.38869300       0.78600900
    80  I         -0.00946850       0.88869300       0.21399100
    81  I          0.28612000       0.53513700       0.95145120
    82  I          0.21388000       0.03513700       0.04854880
    83  I          0.71388000       0.46486300       0.04854880
    84  I          0.78612000       0.96486300       0.95145120
    85  N          0.27851300       0.70355000       0.08748000
    86  N          0.22148700       0.20355000       0.91252000
    87  N          0.72148700       0.29645000       0.91252000
    88  N          0.77851300       0.79645000       0.08748000
    89  H          0.30370000       0.73010000       0.13440000
    90  H          0.19630000       0.23010000       0.86560000
    91  H          0.69630000       0.26990000       0.86560000
    92  H          0.80370000       0.76990000       0.13440000
    93  N          0.16341200       0.66195000       0.93927000
    94  N          0.33658800       0.16195000       0.06073000
    95  N          0.83658800       0.33805000       0.06073000
    96  N          0.66341200       0.83805000       0.93927000
    97  C          0.33101400       0.64615000       0.08977000
    98  C          0.16898600       0.14615000       0.91023000
    99  C          0.66898600       0.35385000       0.91023000
   100  C          0.83101400       0.85385000       0.08977000
   101  C          0.25971500       0.62154000       0.00019000
   102  C          0.24028500       0.12154000      -0.00019000
   103  C          0.74028500       0.37846000      -0.00019000
   104  C          0.75971500       0.87846000       0.00019000
   105  C          0.17921500       0.70984000      -0.00379000
   106  C          0.32078500       0.20984000       0.00379000
   107  C          0.82078500       0.29016000       0.00379000
   108  C          0.67921500       0.79016000      -0.00379000
