data_BPYRDB02
_symmetry_space_group_name_H-M    'P1'
_symmetry_Int_Tables_number       1
loop_
_symmetry_equiv_pos_site_id
_symmetry_equiv_pos_as_xyz
1 x,y,z
_cell_length_a                   13.2505
_cell_length_b                   12.3524
_cell_length_c                   7.277114
_cell_angle_alpha                90.0
_cell_angle_beta                 111.712
_cell_angle_gamma                90.0
loop_
_atom_site_label
_atom_site_type_symbol
_atom_site_fract_x
_atom_site_fract_y
_atom_site_fract_z
     1  Br         0.34464200       0.36480300       0.22691500
     2  Br         0.84464200       0.86480300       0.22691500
     3  Br         0.65535800       0.36480300       0.27308500
     4  Br         0.15535800       0.86480300       0.27308500
     5  Br         0.65535800       0.63519700       0.77308500
     6  Br         0.15535800       0.13519700       0.77308500
     7  Br         0.34464200       0.63519700       0.72691500
     8  Br         0.84464200       0.13519700       0.72691500
     9  N          0.00000000       0.08393000       0.25000000
    10  N          0.50000000       0.58393000       0.25000000
    11  N          0.00000000       0.91607000       0.75000000
    12  N          0.50000000       0.41607000       0.75000000
    13  N          0.00000000       0.64593000       0.25000000
    14  N          0.50000000       0.14593000       0.25000000
    15  N          0.00000000       0.35407000       0.75000000
    16  N          0.50000000       0.85407000       0.75000000
    17  C          0.08213000       0.13593000       0.22526000
    18  C          0.58213000       0.63593000       0.22526000
    19  C          0.91787000       0.13593000       0.27474000
    20  C          0.41787000       0.63593000       0.27474000
    21  C          0.91787000       0.86407000       0.77474000
    22  C          0.41787000       0.36407000       0.77474000
    23  C          0.08213000       0.86407000       0.72526000
    24  C          0.58213000       0.36407000       0.72526000
    25  C          0.08442000       0.24703000       0.22525000
    26  C          0.58442000       0.74703000       0.22525000
    27  C          0.91558000       0.24703000       0.27475000
    28  C          0.41558000       0.74703000       0.27475000
    29  C          0.91558000       0.75297000       0.77475000
    30  C          0.41558000       0.25297000       0.77475000
    31  C          0.08442000       0.75297000       0.72525000
    32  C          0.58442000       0.25297000       0.72525000
    33  C          0.00000000       0.30463000       0.25000000
    34  C          0.50000000       0.80463000       0.25000000
    35  C          0.00000000       0.69537000       0.75000000
    36  C          0.50000000       0.19537000       0.75000000
    37  C          0.00000000       0.42493000       0.25000000
    38  C          0.50000000       0.92493000       0.25000000
    39  C          0.00000000       0.57507000       0.75000000
    40  C          0.50000000       0.07507000       0.75000000
    41  C          0.09713000       0.48293000       0.31165000
    42  C          0.59713000       0.98293000       0.31165000
    43  C          0.90287000       0.48293000       0.18835000
    44  C          0.40287000       0.98293000       0.18835000
    45  C          0.90287000       0.51707000       0.68835000
    46  C          0.40287000       0.01707000       0.68835000
    47  C          0.09713000       0.51707000       0.81165000
    48  C          0.59713000       0.01707000       0.81165000
    49  C          0.09533000       0.59403000       0.30965000
    50  C          0.59533000       0.09403000       0.30965000
    51  C          0.90467000       0.59403000       0.19035000
    52  C          0.40467000       0.09403000       0.19035000
    53  C          0.90467000       0.40597000       0.69035000
    54  C          0.40467000       0.90597000       0.69035000
    55  C          0.09533000       0.40597000       0.80965000
    56  C          0.59533000       0.90597000       0.80965000
    57  H          0.00000000       0.02250000       0.25000000
    58  H          0.50000000       0.52250000       0.25000000
    59  H          0.00000000       0.97750000       0.75000000
    60  H          0.50000000       0.47750000       0.75000000
    61  H          0.00000000       0.71650000       0.25000000
    62  H          0.50000000       0.21650000       0.25000000
    63  H          0.00000000       0.28350000       0.75000000
    64  H          0.50000000       0.78350000       0.75000000
    65  H          0.13630000       0.09140000       0.22360000
    66  H          0.63630000       0.59140000       0.22360000
    67  H          0.86370000       0.09140000       0.27640000
    68  H          0.36370000       0.59140000       0.27640000
    69  H          0.86370000       0.90860000       0.77640000
    70  H          0.36370000       0.40860000       0.77640000
    71  H          0.13630000       0.90860000       0.72360000
    72  H          0.63630000       0.40860000       0.72360000
    73  H          0.14320000       0.27830000       0.20350000
    74  H          0.64320000       0.77830000       0.20350000
    75  H          0.85680000       0.27830000       0.29650000
    76  H          0.35680000       0.77830000       0.29650000
    77  H          0.85680000       0.72170000       0.79650000
    78  H          0.35680000       0.22170000       0.79650000
    79  H          0.14320000       0.72170000       0.70350000
    80  H          0.64320000       0.22170000       0.70350000
    81  H          0.16430000       0.44530000       0.37160000
    82  H          0.66430000       0.94530000       0.37160000
    83  H          0.83570000       0.44530000       0.12840000
    84  H          0.33570000       0.94530000       0.12840000
    85  H          0.83570000       0.55470000       0.62840000
    86  H          0.33570000       0.05470000       0.62840000
    87  H          0.16430000       0.55470000       0.87160000
    88  H          0.66430000       0.05470000       0.87160000
    89  H          0.16230000       0.63930000       0.35670000
    90  H          0.66230000       0.13930000       0.35670000
    91  H          0.83770000       0.63930000       0.14330000
    92  H          0.33770000       0.13930000       0.14330000
    93  H          0.83770000       0.36070000       0.64330000
    94  H          0.33770000       0.86070000       0.64330000
    95  H          0.16230000       0.36070000       0.85670000
    96  H          0.66230000       0.86070000       0.85670000
