data_BPYRDB07
_symmetry_space_group_name_H-M    'P1'
_symmetry_Int_Tables_number       1
loop_
_symmetry_equiv_pos_site_id
_symmetry_equiv_pos_as_xyz
1 x,y,z
_cell_length_a                   4.845011
_cell_length_b                   7.4532
_cell_length_c                   7.8755
_cell_angle_alpha                70.894
_cell_angle_beta                 86.824
_cell_angle_gamma                77.822
loop_
_atom_site_label
_atom_site_type_symbol
_atom_site_fract_x
_atom_site_fract_y
_atom_site_fract_z
     1  Br         0.12293000       0.34274000       0.82719000
     2  Br         0.87707000       0.65726000       0.17281000
     3  N          0.57830000       0.68440000       0.76280000
     4  N          0.42170000       0.31560000       0.23720000
     5  H          0.72510000       0.61180000       0.82320000
     6  H          0.27490000       0.38820000       0.17680000
     7  C          0.38330000       0.78440000       0.83890000
     8  C          0.61670000       0.21560000       0.16110000
     9  H          0.40020000       0.77210000       0.95870000
    10  H          0.59980000       0.22790000       0.04130000
    11  C          0.14840000       0.90850000       0.73611000
    12  C          0.85160000       0.09150000       0.26389000
    13  H          0.00700000       0.97550000       0.79010000
    14  H         -0.00700000       0.02450000       0.20990000
    15  C          0.12040000       0.93350000       0.54611000
    16  C          0.87960000       0.06650000       0.45389000
    17  C          0.32330000       0.81940000       0.47180000
    18  C          0.67670000       0.18060000       0.52820000
    19  H          0.30890000       0.82610000       0.35190000
    20  H          0.69110000       0.17390000       0.64810000
    21  C          0.54830000       0.69440000       0.58290000
    22  C          0.45170000       0.30560000       0.41710000
    23  H          0.68270000       0.61550000       0.53430000
    24  H          0.31730000       0.38450000       0.46570000
    25  N          0.42170000       0.31640000       0.23880000
    26  N          0.57830000       0.68360000       0.76120000
    27  C          0.61670000       0.21640000       0.16290000
    28  C          0.38330000       0.78360000       0.83710000
    29  C          0.67670000       0.18140000       0.52980000
    30  C          0.32330000       0.81860000       0.47020000
    31  C          0.45170000       0.30640000       0.41890000
    32  C          0.54830000       0.69360000       0.58110000
