data_BPYRDB08
_symmetry_space_group_name_H-M    'P1'
_symmetry_Int_Tables_number       1
loop_
_symmetry_equiv_pos_site_id
_symmetry_equiv_pos_as_xyz
1 x,y,z
_cell_length_a                   4.801117
_cell_length_b                   7.2754
_cell_length_c                   7.7595
_cell_angle_alpha                71.066
_cell_angle_beta                 86.465
_cell_angle_gamma                78.644
loop_
_atom_site_label
_atom_site_type_symbol
_atom_site_fract_x
_atom_site_fract_y
_atom_site_fract_z
     1  Br         0.12533000       0.34753000       0.82286000
     2  Br         0.87467000       0.65247000       0.17714000
     3  N          0.57630000       0.68730000       0.76860000
     4  N          0.42370000       0.31270000       0.23140000
     5  H          0.71900000       0.61350000       0.83330000
     6  H          0.28100000       0.38650000       0.16670000
     7  C          0.37330000       0.79230000       0.83370000
     8  C          0.62670000       0.20770000       0.16630000
     9  H          0.38070000       0.78510000       0.95450000
    10  H          0.61930000       0.21490000       0.04550000
    11  C          0.14030000       0.91840000       0.72480000
    12  C          0.85970000       0.08160000       0.27520000
    13  H          0.00060000      -0.00640000       0.77410000
    14  H         -0.00060000       0.00640000       0.22590000
    15  C          0.12130000       0.92730000       0.56080000
    16  C          0.87870000       0.07270000       0.43920000
    17  C          0.33030000       0.80930000       0.49270000
    18  C          0.66970000       0.19070000       0.50730000
    19  H          0.31040000       0.80790000       0.37360000
    20  H          0.68960000       0.19210000       0.62640000
    21  C          0.55030000       0.70030000       0.58580000
    22  C          0.44970000       0.29970000       0.41420000
    23  H          0.69240000       0.63050000       0.53150000
    24  H          0.30760000       0.36950000       0.46850000
    25  C          0.62670000       0.20830000       0.16770000
    26  C          0.37330000       0.79170000       0.83230000
    27  C          0.85970000       0.08240000       0.27680000
    28  C          0.14030000       0.91760000       0.72320000
    29  C          0.87870000       0.07330000       0.44080000
    30  C          0.12130000       0.92670000       0.55920000
    31  C          0.66970000       0.19130000       0.50870000
    32  C          0.33030000       0.80870000       0.49130000
    33  C          0.44970000       0.30030000       0.41580000
    34  C          0.55030000       0.69970000       0.58420000
