data_BPYRDB06
_symmetry_space_group_name_H-M    'P1'
_symmetry_Int_Tables_number       1
loop_
_symmetry_equiv_pos_site_id
_symmetry_equiv_pos_as_xyz
1 x,y,z
_cell_length_a                   4.8744
_cell_length_b                   7.5676
_cell_length_c                   7.9364
_cell_angle_alpha                70.736
_cell_angle_beta                 86.645
_cell_angle_gamma                77.477
loop_
_atom_site_label
_atom_site_type_symbol
_atom_site_fract_x
_atom_site_fract_y
_atom_site_fract_z
     1  Br         0.12126000       0.34317000       0.82626150
     2  Br         0.87874000       0.65683000       0.17373850
     3  N          0.56760000       0.69470000       0.75441600
     4  N          0.43240000       0.30530000       0.24558400
     5  H          0.71270000       0.62560000       0.81860000
     6  H          0.28730000       0.37440000       0.18140000
     7  C          0.37260000       0.80280000       0.83220000
     8  C          0.62740000       0.19720000       0.16780000
     9  H          0.39470000       0.79610000       0.94900000
    10  H          0.60530000       0.20390000       0.05100000
    11  C          0.15060000       0.91480000       0.73551800
    12  C          0.84940000       0.08520000       0.26448200
    13  H          0.01080000       0.98470000       0.78650000
    14  H         -0.01080000       0.01530000       0.21350000
    15  C          0.12350000       0.92770000       0.55151400
    16  C          0.87650000       0.07230000       0.44848600
    17  C          0.32570000       0.81090000       0.48120000
    18  C          0.67430000       0.18910000       0.51880000
    19  H          0.30370000       0.81940000       0.36210000
    20  H          0.69630000       0.18060000       0.63790000
    21  C          0.55660000       0.68180000       0.57751800
    22  C          0.44340000       0.31820000       0.42248200
    23  H          0.68630000       0.59800000       0.53380000
    24  H          0.31370000       0.40200000       0.46620000
    25  N          0.43240000       0.30670000       0.24561600
    26  N          0.56760000       0.69330000       0.75438400
    27  C          0.62740000       0.19880000       0.16820000
    28  C          0.37260000       0.80120000       0.83180000
    29  C          0.84940000       0.08680000       0.26451800
    30  C          0.15060000       0.91320000       0.73548200
    31  C          0.87650000       0.07370000       0.44851400
    32  C          0.12350000       0.92630000       0.55148600
    33  C          0.67430000       0.19090000       0.51920000
    34  C          0.32570000       0.80910000       0.48080000
    35  C          0.44340000       0.31980000       0.42251800
    36  C          0.55660000       0.68020000       0.57748200
