data_BZAMID
_symmetry_space_group_name_H-M    'P1'
_symmetry_Int_Tables_number       1
loop_
_symmetry_equiv_pos_site_id
_symmetry_equiv_pos_as_xyz
1 x,y,z
_cell_length_a                   5.591
_cell_length_b                   5.011
_cell_length_c                   21.935
_cell_angle_alpha                90.0
_cell_angle_beta                 90.7517
_cell_angle_gamma                90.0
loop_
_atom_site_label
_atom_site_type_symbol
_atom_site_fract_x
_atom_site_fract_y
_atom_site_fract_z
     1  C          0.29200000       0.03100000       0.06080000
     2  C          0.70800000       0.53100000       0.43920000
     3  C          0.70800000       0.96900000       0.93920000
     4  C          0.29200000       0.46900000       0.56080000
     5  C          0.47800000       0.07300000       0.10860000
     6  C          0.52200000       0.57300000       0.39140000
     7  C          0.52200000       0.92700000       0.89140000
     8  C          0.47800000       0.42700000       0.60860000
     9  C          0.64400000       0.27200000       0.10380000
    10  C          0.35600000       0.77200000       0.39620000
    11  C          0.35600000       0.72800000       0.89620000
    12  C          0.64400000       0.22800000       0.60380000
    13  C          0.82200000       0.29600000       0.14820000
    14  C          0.17800000       0.79600000       0.35180000
    15  C          0.17800000       0.70400000       0.85180000
    16  C          0.82200000       0.20400000       0.64820000
    17  C          0.82300000       0.12900000       0.19760000
    18  C          0.17700000       0.62900000       0.30240000
    19  C          0.17700000       0.87100000       0.80240000
    20  C          0.82300000       0.37100000       0.69760000
    21  C          0.64700000       0.92900000       0.20360000
    22  C          0.35300000       0.42900000       0.29640000
    23  C          0.35300000       0.07100000       0.79640000
    24  C          0.64700000       0.57100000       0.70360000
    25  C          0.48100000       0.90300000       0.15890000
    26  C          0.51900000       0.40300000       0.34110000
    27  C          0.51900000       0.09700000       0.84110000
    28  C          0.48100000       0.59700000       0.65890000
    29  O          0.19500000       0.81100000       0.05300000
    30  O          0.80500000       0.31100000       0.44700000
    31  O          0.80500000       0.18900000       0.94700000
    32  O          0.19500000       0.68900000       0.55300000
    33  N          0.23000000       0.24100000       0.02840000
    34  N          0.77000000       0.74100000       0.47160000
    35  N          0.77000000       0.75900000       0.97160000
    36  N          0.23000000       0.25900000       0.52840000
    37  H          0.64400000       0.40100000       0.06700000
    38  H          0.35600000       0.90100000       0.43300000
    39  H          0.35600000       0.59900000       0.93300000
    40  H          0.64400000       0.09900000       0.56700000
    41  H          0.94800000       0.43900000       0.14300000
    42  H          0.05200000       0.93900000       0.35700000
    43  H          0.05200000       0.56100000       0.85700000
    44  H          0.94800000       0.06100000       0.64300000
    45  H          0.94700000       0.15400000       0.22900000
    46  H          0.05300000       0.65400000       0.27100000
    47  H          0.05300000       0.84600000       0.77100000
    48  H          0.94700000       0.34600000       0.72900000
    49  H          0.65100000       0.80400000       0.23900000
    50  H          0.34900000       0.30400000       0.26100000
    51  H          0.34900000       0.19600000       0.76100000
    52  H          0.65100000       0.69600000       0.73900000
    53  H          0.35400000       0.76800000       0.16300000
    54  H          0.64600000       0.26800000       0.33700000
    55  H          0.64600000       0.23200000       0.83700000
    56  H          0.35400000       0.73200000       0.66300000
    57  H          0.09300000       0.20000000       0.00200000
    58  H          0.90700000       0.70000000       0.49800000
    59  H          0.90700000       0.80000000      -0.00200000
    60  H          0.09300000       0.30000000       0.50200000
    61  H          0.21800000       0.43500000       0.03700000
    62  H          0.78200000       0.93500000       0.46300000
    63  H          0.78200000       0.56500000       0.96300000
    64  H          0.21800000       0.06500000       0.53700000
