data_BZAMID11
_symmetry_space_group_name_H-M    'P1'
_symmetry_Int_Tables_number       1
loop_
_symmetry_equiv_pos_site_id
_symmetry_equiv_pos_as_xyz
1 x,y,z
_cell_length_a                   5.052115
_cell_length_b                   5.424212
_cell_length_c                   21.9497
_cell_angle_alpha                90.0
_cell_angle_beta                 90.90712
_cell_angle_gamma                90.0
loop_
_atom_site_label
_atom_site_type_symbol
_atom_site_fract_x
_atom_site_fract_y
_atom_site_fract_z
     1  O          0.69611170       0.20153170       0.55266400
     2  O          0.80388830       0.70153170       0.94733600
     3  O          0.30388830       0.79846830       0.44733600
     4  O          0.19611170       0.29846830       0.05266400
     5  N          0.26152000       0.22662000       0.52761500
     6  N          0.23848000       0.72662000       0.97238500
     7  N          0.73848000       0.77338000       0.47238500
     8  N          0.76152000       0.27338000       0.02761500
     9  H          0.09430000       0.26630000       0.53887000
    10  H          0.40570000       0.76630000       0.96113000
    11  H          0.90570000       0.73370000       0.46113000
    12  H          0.59430000       0.23370000       0.03887000
    13  H          0.27530000       0.10030000       0.50207000
    14  H          0.22470000       0.60030000      -0.00207000
    15  H          0.72470000       0.89970000       0.49793000
    16  H          0.77530000       0.39970000       0.00207000
    17  C          0.47322000       0.29362000       0.56054600
    18  C          0.02678000       0.79362000       0.93945400
    19  C          0.52678000       0.70638000       0.43945400
    20  C         -0.02678000       0.20638000       0.06054600
    21  C          0.43562000       0.48752000       0.60832600
    22  C          0.06438000      -0.01248000       0.89167400
    23  C          0.56438000       0.51248000       0.39167400
    24  C          0.93562000       0.01248000       0.10832600
    25  C          0.61532000       0.49802000       0.65685600
    26  C          0.88468000      -0.00198000       0.84314400
    27  C          0.38468000       0.50198000       0.34314400
    28  C          0.11532000       0.00198000       0.15685600
    29  H          0.75720000       0.38320000       0.65920000
    30  H          0.74280000       0.88320000       0.84080000
    31  H          0.24280000       0.61680000       0.34080000
    32  H          0.25720000       0.11680000       0.15920000
    33  C          0.58863000       0.67543000       0.70196600
    34  C          0.91137000       0.17543000       0.79803400
    35  C          0.41137000       0.32457000       0.29803400
    36  C          0.08863000       0.82457000       0.20196600
    37  H          0.71040000       0.68000000       0.73540000
    38  H          0.78960000       0.18000000       0.76460000
    39  H          0.28960000       0.32000000       0.26460000
    40  H          0.21040000       0.82000000       0.23540000
    41  C          0.38363000       0.84632000       0.69830600
    42  C          0.11637000       0.34632000       0.80169400
    43  C          0.61637000       0.15368000       0.30169400
    44  C          0.88363000       0.65368000       0.19830600
    45  H          0.36610000       0.96870000       0.72890000
    46  H          0.13390000       0.46870000       0.77110000
    47  H          0.63390000       0.03130000       0.27110000
    48  H          0.86610000       0.53130000       0.22890000
    49  C          0.20553000       0.83742000       0.64986600
    50  C          0.29447000       0.33742000       0.85013400
    51  C          0.79447000       0.16258000       0.35013400
    52  C          0.70553000       0.66258000       0.14986600
    53  H          0.06580000       0.95440000       0.64720000
    54  H          0.43420000       0.45440000       0.85280000
    55  H          0.93420000       0.04560000       0.35280000
    56  H          0.56580000       0.54560000       0.14720000
    57  C          0.22953000       0.65882000       0.60507600
    58  C          0.27047000       0.15882000       0.89492400
    59  C          0.77047000       0.34118000       0.39492400
    60  C          0.72953000       0.84118000       0.10507600
    61  H          0.10550000       0.65300000       0.57210000
    62  H          0.39450000       0.15300000       0.92790000
    63  H          0.89450000       0.34700000       0.42790000
    64  H          0.60550000       0.84700000       0.07210000
