data_BZAMID06
_symmetry_space_group_name_H-M    'P1'
_symmetry_Int_Tables_number       1
loop_
_symmetry_equiv_pos_site_id
_symmetry_equiv_pos_as_xyz
1 x,y,z
_cell_length_a                   17.43216
_cell_length_b                   14.19371
_cell_length_c                   4.97731
_cell_angle_alpha                90.0
_cell_angle_beta                 90.0
_cell_angle_gamma                90.0
loop_
_atom_site_label
_atom_site_type_symbol
_atom_site_fract_x
_atom_site_fract_y
_atom_site_fract_z
     1  C          0.86463000       0.48289000       0.24393000
     2  C          0.13537000       0.51711000       0.24393000
     3  C          0.36463000       0.01711000       0.24393000
     4  C          0.63537000       0.98289000       0.24393000
     5  C          0.91192000       0.47827000       0.47594000
     6  C          0.08808000       0.52173000       0.47594000
     7  C          0.41192000       0.02173000       0.47594000
     8  C          0.58808000       0.97827000       0.47594000
     9  C          0.95739000       0.39972000       0.51858000
    10  C          0.04261000       0.60028000       0.51858000
    11  C          0.45739000       0.10028000       0.51858000
    12  C          0.54261000       0.89972000       0.51858000
    13  C          0.95660000       0.32262000       0.32474000
    14  C          0.04340000       0.67738000       0.32474000
    15  C          0.45660000       0.17738000       0.32474000
    16  C          0.54340000       0.82262000       0.32474000
    17  C          0.90663000       0.33147000       0.08719000
    18  C          0.09337000       0.66853000       0.08719000
    19  C          0.40663000       0.16853000       0.08719000
    20  C          0.59337000       0.83147000       0.08719000
    21  C          0.86368000       0.41079000       0.05927000
    22  C          0.13632000       0.58921000       0.05927000
    23  C          0.36368000       0.08921000       0.05927000
    24  C          0.63632000       0.91079000       0.05927000
    25  C          0.00394000       0.23578000       0.37400000
    26  C         -0.00394000       0.76422000       0.37400000
    27  C          0.50394000       0.26422000       0.37400000
    28  C          0.49606000       0.73578000       0.37400000
    29  H          0.83495000       0.53370000       0.21406000
    30  H          0.16505000       0.46630000       0.21406000
    31  H          0.33495000       0.96630000       0.21406000
    32  H          0.66505000       0.03370000       0.21406000
    33  H          0.91248000       0.53180000       0.60972000
    34  H          0.08752000       0.46820000       0.60972000
    35  H          0.41248000       0.96820000       0.60972000
    36  H          0.58752000       0.03180000       0.60972000
    37  H          0.99023000       0.39655000       0.68027000
    38  H          0.00977000       0.60345000       0.68027000
    39  H          0.49023000       0.10345000       0.68027000
    40  H          0.50977000       0.89655000       0.68027000
    41  H          0.90486000       0.27754000       0.92850000
    42  H          0.09514000       0.72246000       0.92850000
    43  H          0.40486000       0.22246000       0.92850000
    44  H          0.59514000       0.77754000       0.92850000
    45  H          0.83313000       0.41744000       0.92194000
    46  H          0.16687000       0.58256000       0.92194000
    47  H          0.33313000       0.08256000       0.92194000
    48  H          0.66687000       0.91744000       0.92194000
    49  H          0.04991000       0.12992000       0.20740000
    50  H          0.95009000       0.87008000       0.20740000
    51  H          0.54991000       0.37008000       0.20740000
    52  H          0.45009000       0.62992000       0.20740000
    53  H          0.00908000       0.20356000       0.00407000
    54  H          0.99092000       0.79644000       0.00407000
    55  H          0.50908000       0.29644000       0.00407000
    56  H          0.49092000       0.70356000       0.00407000
    57  N          0.02188000       0.18520000       0.17516000
    58  N          0.97812000       0.81480000       0.17516000
    59  N          0.52188000       0.31480000       0.17516000
    60  N          0.47812000       0.68520000       0.17516000
    61  O          0.00935000       0.20294000       0.61307000
    62  O          0.99065000       0.79706000       0.61307000
    63  O          0.50935000       0.29706000       0.61307000
    64  O          0.49065000       0.70294000       0.61307000
    65  C          0.28385000       0.75422000       0.71603000
    66  C          0.71615000       0.24578000       0.71603000
    67  C          0.78385000       0.74578000       0.71603000
    68  C          0.21615000       0.25422000       0.71603000
    69  C          0.23139000       0.78848000       0.91032000
    70  C          0.76861000       0.21152000       0.91032000
    71  C          0.73139000       0.71152000       0.91032000
    72  C          0.26861000       0.28848000       0.91032000
    73  C          0.17965000       0.86529000       0.84390000
    74  C          0.82035000       0.13471000       0.84390000
    75  C          0.67965000       0.63471000       0.84390000
    76  C          0.32035000       0.36529000       0.84390000
    77  C          0.18193000       0.90486000       0.59499000
    78  C          0.81807000       0.09514000       0.59499000
    79  C          0.68193000       0.59514000       0.59499000
    80  C          0.31807000       0.40486000       0.59499000
    81  C          0.23493000       0.87076000       0.39708000
    82  C          0.76507000       0.12924000       0.39708000
    83  C          0.73493000       0.62924000       0.39708000
    84  C          0.26507000       0.37076000       0.39708000
    85  C          0.28680000       0.79460000       0.46063000
    86  C          0.71320000       0.20540000       0.46063000
    87  C          0.78680000       0.70540000       0.46063000
    88  C          0.21320000       0.29460000       0.46063000
    89  C          0.12946000       0.98158000       0.53098000
    90  C          0.87054000       0.01842000       0.53098000
    91  C          0.62946000       0.51842000       0.53098000
    92  C          0.37054000       0.48158000       0.53098000
    93  H          0.31843000       0.70320000       0.76045000
    94  H          0.68157000       0.29680000       0.76045000
    95  H          0.81843000       0.79680000       0.76045000
    96  H          0.18157000       0.20320000       0.76045000
    97  H          0.23008000       0.75870000       0.09808000
    98  H          0.76992000       0.24130000       0.09808000
    99  H          0.73008000       0.74130000       0.09808000
   100  H          0.26992000       0.25870000       0.09808000
   101  H          0.14246000       0.88969000      -0.02024000
   102  H          0.85754000       0.11031000      -0.02024000
   103  H          0.64246000       0.61031000      -0.02024000
   104  H          0.35754000       0.38969000      -0.02024000
   105  H          0.23626000       0.89688000       0.23238000
   106  H          0.76374000       0.10312000       0.23238000
   107  H          0.73626000       0.60312000       0.23238000
   108  H          0.26374000       0.39688000       0.23238000
   109  H          0.32228000       0.77159000       0.32558000
   110  H          0.67772000       0.22841000       0.32558000
   111  H          0.82228000       0.72841000       0.32558000
   112  H          0.17772000       0.27159000       0.32558000
   113  H          0.07871000       0.09334000       0.69282000
   114  H          0.92129000       0.90666000       0.69282000
   115  H          0.57871000       0.40666000       0.69282000
   116  H          0.42129000       0.59334000       0.69282000
   117  H          0.11726000       0.02595000       0.90670000
   118  H          0.88274000       0.97405000       0.90670000
   119  H          0.61726000       0.47405000       0.90670000
   120  H          0.38274000       0.52595000       0.90670000
   121  N          0.10823000       0.03613000       0.72909000
   122  N          0.89177000       0.96387000       0.72909000
   123  N          0.60823000       0.46387000       0.72909000
   124  N          0.39177000       0.53613000       0.72909000
   125  O          0.11473000       0.01257000       0.30340000
   126  O          0.88527000       0.98743000       0.30340000
   127  O          0.61473000       0.48743000       0.30340000
   128  O          0.38527000       0.51257000       0.30340000
