data_BZDMAZ05
_symmetry_space_group_name_H-M    'P1'
_symmetry_Int_Tables_number       1
loop_
_symmetry_equiv_pos_site_id
_symmetry_equiv_pos_as_xyz
1 x,y,z
_cell_length_a                   9.7826
_cell_length_b                   7.8594
_cell_length_c                   12.9678
_cell_angle_alpha                90.0
_cell_angle_beta                 90.0
_cell_angle_gamma                90.0
loop_
_atom_site_label
_atom_site_type_symbol
_atom_site_fract_x
_atom_site_fract_y
_atom_site_fract_z
     1  N          0.00068000       0.24048000       0.00976000
     2  N          0.49932000       0.75952000       0.50976000
     3  N         -0.00068000       0.74048000       0.49024000
     4  N          0.50068000       0.25952000      -0.00976000
     5  N         -0.00068000       0.75952000      -0.00976000
     6  N          0.50068000       0.24048000       0.49024000
     7  N          0.00068000       0.25952000       0.50976000
     8  N          0.49932000       0.74048000       0.00976000
     9  H          0.92040000       0.28430000       0.00480000
    10  H          0.57960000       0.71570000       0.50480000
    11  H          0.07960000       0.78430000       0.49520000
    12  H          0.42040000       0.21570000      -0.00480000
    13  H          0.07960000       0.71570000      -0.00480000
    14  H          0.42040000       0.28430000       0.49520000
    15  H          0.92040000       0.21570000       0.50480000
    16  H          0.57960000       0.78430000       0.00480000
    17  C          0.10571000       0.26281000       0.94372000
    18  C          0.39429000       0.73719000       0.44372000
    19  C          0.89429000       0.76281000       0.55628000
    20  C          0.60571000       0.23719000       0.05628000
    21  C          0.89429000       0.73719000       0.05628000
    22  C          0.60571000       0.26281000       0.55628000
    23  C          0.10571000       0.23719000       0.44372000
    24  C          0.39429000       0.76281000       0.94372000
    25  H          0.10010000       0.33080000       0.88530000
    26  H          0.39990000       0.66920000       0.38530000
    27  H          0.89990000       0.83080000       0.61470000
    28  H          0.60010000       0.16920000       0.11470000
    29  H          0.89990000       0.66920000       0.11470000
    30  H          0.60010000       0.33080000       0.61470000
    31  H          0.10010000       0.16920000       0.38530000
    32  H          0.39990000       0.83080000       0.88530000
    33  N          0.21558000       0.18058000       0.96974000
    34  N          0.28442000       0.81942000       0.46974000
    35  N          0.78442000       0.68058000       0.53026000
    36  N          0.71558000       0.31942000       0.03026000
    37  N          0.78442000       0.81942000       0.03026000
    38  N          0.71558000       0.18058000       0.53026000
    39  N          0.21558000       0.31942000       0.46974000
    40  N          0.28442000       0.68058000       0.96974000
    41  C          0.26121000      -0.00861000       0.12237000
    42  C          0.23879000       0.00861000       0.62237000
    43  C          0.73879000       0.49139000       0.37763000
    44  C          0.76121000       0.50861000       0.87763000
    45  C          0.73879000       0.00861000       0.87763000
    46  C          0.76121000      -0.00861000       0.37763000
    47  C          0.26121000       0.50861000       0.62237000
    48  C          0.23879000       0.49139000       0.12237000
    49  H          0.35250000       0.97000000       0.10720000
    50  H          0.14750000       0.03000000       0.60720000
    51  H          0.64750000       0.47000000       0.39280000
    52  H          0.85250000       0.53000000       0.89280000
    53  H          0.64750000       0.03000000       0.89280000
    54  H          0.85250000       0.97000000       0.39280000
    55  H          0.35250000       0.53000000       0.60720000
    56  H          0.14750000       0.47000000       0.10720000
    57  C          0.19941000       0.92229000       0.20648000
    58  C          0.30059000       0.07771000       0.70648000
    59  C          0.80059000       0.42229000       0.29352000
    60  C          0.69941000       0.57771000       0.79352000
    61  C          0.80059000       0.07771000       0.79352000
    62  C          0.69941000       0.92229000       0.29352000
    63  C          0.19941000       0.57771000       0.70648000
    64  C          0.30059000       0.42229000       0.20648000
    65  H          0.24920000       0.84840000       0.24800000
    66  H          0.25080000       0.15160000       0.74800000
    67  H          0.75080000       0.34840000       0.25200000
    68  H          0.74920000       0.65160000       0.75200000
    69  H          0.75080000       0.15160000       0.75200000
    70  H          0.74920000       0.84840000       0.25200000
    71  H          0.24920000       0.65160000       0.74800000
    72  H          0.25080000       0.34840000       0.24800000
    73  C          0.06331000       0.95831000       0.23288000
    74  C          0.43669000       0.04169000       0.73288000
    75  C          0.93669000       0.45831000       0.26712000
    76  C          0.56331000       0.54169000       0.76712000
    77  C          0.93669000       0.04169000       0.76712000
    78  C          0.56331000       0.95831000       0.26712000
    79  C          0.06331000       0.54169000       0.73288000
    80  C          0.43669000       0.45831000       0.23288000
    81  H          0.02550000       0.91050000       0.29190000
    82  H          0.47450000       0.08950000       0.79190000
    83  H          0.97450000       0.41050000       0.20810000
    84  H          0.52550000       0.58950000       0.70810000
    85  H          0.97450000       0.08950000       0.70810000
    86  H          0.52550000       0.91050000       0.20810000
    87  H          0.02550000       0.58950000       0.79190000
    88  H          0.47450000       0.41050000       0.29190000
    89  C         -0.01411000       0.06379000       0.17217000
    90  C          0.51411000       0.93621000       0.67217000
    91  C          0.01411000       0.56379000       0.32783000
    92  C          0.48589000       0.43621000       0.82783000
    93  C          0.01411000       0.93621000       0.82783000
    94  C          0.48589000       0.06379000       0.32783000
    95  C         -0.01411000       0.43621000       0.67217000
    96  C          0.51411000       0.56379000       0.17217000
    97  H          0.89520000       0.08720000       0.18830000
    98  H          0.60480000       0.91280000       0.68830000
    99  H          0.10480000       0.58720000       0.31170000
   100  H          0.39520000       0.41280000       0.81170000
   101  H          0.10480000       0.91280000       0.81170000
   102  H          0.39520000       0.08720000       0.31170000
   103  H          0.89520000       0.41280000       0.68830000
   104  H          0.60480000       0.58720000       0.18830000
   105  C          0.04699000       0.13359000       0.08647000
   106  C          0.45301000       0.86641000       0.58647000
   107  C          0.95301000       0.63359000       0.41353000
   108  C          0.54699000       0.36641000       0.91353000
   109  C          0.95301000       0.86641000       0.91353000
   110  C          0.54699000       0.13359000       0.41353000
   111  C          0.04699000       0.36641000       0.58647000
   112  C          0.45301000       0.63359000       0.08647000
   113  C          0.18059000       0.09659000       0.05907000
   114  C          0.31941000       0.90341000       0.55907000
   115  C          0.81941000       0.59659000       0.44093000
   116  C          0.68059000       0.40341000       0.94093000
   117  C          0.81941000       0.90341000       0.94093000
   118  C          0.68059000       0.09659000       0.44093000
   119  C          0.18059000       0.40341000       0.55907000
   120  C          0.31941000       0.59659000       0.05907000
