data_BZDMAZ03
_symmetry_space_group_name_H-M    'P1'
_symmetry_Int_Tables_number       1
loop_
_symmetry_equiv_pos_site_id
_symmetry_equiv_pos_as_xyz
1 x,y,z
_cell_length_a                   9.725711
_cell_length_b                   16.687917
_cell_length_c                   7.605611
_cell_angle_alpha                90.0
_cell_angle_beta                 90.0
_cell_angle_gamma                90.0
loop_
_atom_site_label
_atom_site_type_symbol
_atom_site_fract_x
_atom_site_fract_y
_atom_site_fract_z
     1  N          0.85139160       0.47227800       0.19758180
     2  N          0.64860840       0.02772200       0.19758180
     3  N          0.14860840       0.97227800       0.30241820
     4  N          0.35139160       0.52772200       0.30241820
     5  N          0.14860840       0.52772200       0.80241820
     6  N          0.35139160       0.97227800       0.80241820
     7  N          0.85139160       0.02772200       0.69758180
     8  N          0.64860840       0.47227800       0.69758180
     9  H          0.76760000       0.48870000       0.19950000
    10  H          0.73240000       0.01130000       0.19950000
    11  H          0.23240000       0.98870000       0.30050000
    12  H          0.26760000       0.51130000       0.30050000
    13  H          0.23240000       0.51130000       0.80050000
    14  H          0.26760000       0.98870000       0.80050000
    15  H          0.76760000       0.01130000       0.69950000
    16  H          0.73240000       0.48870000       0.69950000
    17  C          0.95811190       0.50402130       0.28592000
    18  C          0.54188810      -0.00402130       0.28592000
    19  C          0.04188810       0.00402130       0.21408000
    20  C          0.45811190       0.49597870       0.21408000
    21  C          0.04188810       0.49597870       0.71408000
    22  C          0.45811190       0.00402130       0.71408000
    23  C          0.95811190      -0.00402130       0.78592000
    24  C          0.54188810       0.50402130       0.78592000
    25  H          0.94940000       0.54840000       0.35900000
    26  H          0.55060000       0.95160000       0.35900000
    27  H          0.05060000       0.04840000       0.14100000
    28  H          0.44940000       0.45160000       0.14100000
    29  H          0.05060000       0.45160000       0.64100000
    30  H          0.44940000       0.04840000       0.64100000
    31  H          0.94940000       0.95160000       0.85900000
    32  H          0.55060000       0.54840000       0.85900000
    33  N          0.07556150       0.46717900       0.26031180
    34  N          0.42443850       0.03282100       0.26031180
    35  N          0.92443850       0.96717900       0.23968820
    36  N          0.57556150       0.53282100       0.23968820
    37  N          0.92443850       0.53282100       0.73968820
    38  N          0.57556150       0.96717900       0.73968820
    39  N          0.07556150       0.03282100       0.76031180
    40  N          0.42443850       0.46717900       0.76031180
    41  C          0.12642000       0.34826110       0.06482000
    42  C          0.37358000       0.15173890       0.06482000
    43  C          0.87358000       0.84826110       0.43518000
    44  C          0.62642000       0.65173890       0.43518000
    45  C          0.87358000       0.65173890       0.93518000
    46  C          0.62642000       0.84826110       0.93518000
    47  C          0.12642000       0.15173890       0.56482000
    48  C          0.37358000       0.34826110       0.56482000
    49  H          0.21980000       0.34550000       0.09040000
    50  H          0.28020000       0.15450000       0.09040000
    51  H          0.78020000       0.84550000       0.40960000
    52  H          0.71980000       0.65450000       0.40960000
    53  H          0.78020000       0.65450000       0.90960000
    54  H          0.71980000       0.84550000       0.90960000
    55  H          0.21980000       0.15450000       0.59040000
    56  H          0.28020000       0.34550000       0.59040000
    57  C          0.06682000       0.29575120       0.94807000
    58  C          0.43318000       0.20424880       0.94807000
    59  C          0.93318000       0.79575120       0.55193000
    60  C          0.56682000       0.70424880       0.55193000
    61  C          0.93318000       0.70424880       0.05193000
    62  C          0.56682000       0.79575120       0.05193000
    63  C          0.06682000       0.20424880       0.44807000
    64  C          0.43318000       0.29575120       0.44807000
    65  H          0.12100000       0.25710000       0.89390000
    66  H          0.37900000       0.24290000       0.89390000
    67  H          0.87900000       0.75710000       0.60610000
    68  H          0.62100000       0.74290000       0.60610000
    69  H          0.87900000       0.74290000       0.10610000
    70  H          0.62100000       0.75710000       0.10610000
    71  H          0.12100000       0.24290000       0.39390000
    72  H          0.37900000       0.25710000       0.39390000
    73  C          0.92662000       0.29926120       0.90917000
    74  C          0.57338000       0.20073880       0.90917000
    75  C          0.07338000       0.79926120       0.59083000
    76  C          0.42662000       0.70073880       0.59083000
    77  C          0.07338000       0.70073880       0.09083000
    78  C          0.42662000       0.79926120       0.09083000
    79  C          0.92662000       0.20073880       0.40917000
    80  C          0.57338000       0.29926120       0.40917000
    81  H          0.88980000       0.26330000       0.82860000
    82  H          0.61020000       0.23670000       0.82860000
    83  H          0.11020000       0.76330000       0.67140000
    84  H          0.38980000       0.73670000       0.67140000
    85  H          0.11020000       0.73670000       0.17140000
    86  H          0.38980000       0.76330000       0.17140000
    87  H          0.88980000       0.23670000       0.32860000
    88  H          0.61020000       0.26330000       0.32860000
    89  C          0.84202000       0.35477110      -0.01272000
    90  C          0.65798000       0.14522890      -0.01272000
    91  C          0.15798000       0.85477110       0.51272000
    92  C          0.34202000       0.64522890       0.51272000
    93  C          0.15798000       0.64522890       0.01272000
    94  C          0.34202000       0.85477110       0.01272000
    95  C          0.84202000       0.14522890       0.48728000
    96  C          0.65798000       0.35477110       0.48728000
    97  H          0.74820000       0.35640000       0.96340000
    98  H          0.75180000       0.14360000       0.96340000
    99  H          0.25180000       0.85640000       0.53660000
   100  H          0.24820000       0.64360000       0.53660000
   101  H          0.25180000       0.64360000       0.03660000
   102  H          0.24820000       0.85640000       0.03660000
   103  H          0.74820000       0.14360000       0.46340000
   104  H          0.75180000       0.35640000       0.46340000
   105  C          0.90272170       0.40831100       0.10342000
   106  C          0.59727830       0.09168900       0.10342000
   107  C          0.09727830       0.90831100       0.39658000
   108  C          0.40272170       0.59168900       0.39658000
   109  C          0.09727830       0.59168900       0.89658000
   110  C          0.40272170       0.90831100       0.89658000
   111  C          0.90272170       0.09168900       0.60342000
   112  C          0.59727830       0.40831100       0.60342000
   113  C          0.04281170       0.40549100       0.14312000
   114  C          0.45718830       0.09450900       0.14312000
   115  C          0.95718830       0.90549100       0.35688000
   116  C          0.54281170       0.59450900       0.35688000
   117  C          0.95718830       0.59450900       0.85688000
   118  C          0.54281170       0.90549100       0.85688000
   119  C          0.04281170       0.09450900       0.64312000
   120  C          0.45718830       0.40549100       0.64312000
