data_BZDMAZ
_symmetry_space_group_name_H-M    'P1'
_symmetry_Int_Tables_number       1
loop_
_symmetry_equiv_pos_site_id
_symmetry_equiv_pos_as_xyz
1 x,y,z
_cell_length_a                   6.9401
_cell_length_b                   13.4981
_cell_length_c                   6.8081
_cell_angle_alpha                90.0
_cell_angle_beta                 90.0
_cell_angle_gamma                90.0
loop_
_atom_site_label
_atom_site_type_symbol
_atom_site_fract_x
_atom_site_fract_y
_atom_site_fract_z
     1  C          0.21680000       0.13560000       0.01010000
     2  C          0.71680000       0.36440000       0.51010000
     3  C          0.21680000       0.63560000       0.48990000
     4  C          0.71680000       0.86440000      -0.01010000
     5  C          0.34050000       0.05600000       0.03850000
     6  C          0.84050000       0.44400000       0.53850000
     7  C          0.34050000       0.55600000       0.46150000
     8  C          0.84050000       0.94400000       0.96150000
     9  C          0.33430000       0.00790000       0.21840000
    10  C          0.83430000       0.49210000       0.71840000
    11  C          0.33430000       0.50790000       0.28160000
    12  C          0.83430000      -0.00790000       0.78160000
    13  C          0.20680000       0.03880000       0.36570000
    14  C          0.70680000       0.46120000       0.86570000
    15  C          0.20680000       0.53880000       0.13430000
    16  C          0.70680000       0.96120000       0.63430000
    17  C          0.08290000       0.11750000       0.34060000
    18  C          0.58290000       0.38250000       0.84060000
    19  C          0.08290000       0.61750000       0.15940000
    20  C          0.58290000       0.88250000       0.65940000
    21  C          0.08950000       0.16450000       0.15730000
    22  C          0.58950000       0.33550000       0.65730000
    23  C          0.08950000       0.66450000       0.34270000
    24  C          0.58950000       0.83550000       0.84270000
    25  C          0.05370000       0.25720000       0.89770000
    26  C          0.55370000       0.24280000       0.39770000
    27  C          0.05370000       0.75720000       0.60230000
    28  C          0.55370000       0.74280000       0.10230000
    29  H          0.42120000       0.03920000       0.93280000
    30  H          0.92120000       0.46080000       0.43280000
    31  H          0.42120000       0.53920000       0.56720000
    32  H          0.92120000       0.96080000       0.06720000
    33  H          0.43710000       0.95590000       0.24400000
    34  H          0.93710000       0.54410000       0.74400000
    35  H          0.43710000       0.45590000       0.25600000
    36  H          0.93710000       0.04410000       0.75600000
    37  H          0.24360000       0.00670000       0.50490000
    38  H          0.74360000       0.49330000       0.00490000
    39  H          0.24360000       0.50670000      -0.00490000
    40  H          0.74360000      -0.00670000       0.49510000
    41  H         -0.00130000       0.13960000       0.44750000
    42  H          0.49870000       0.36040000       0.94750000
    43  H         -0.00130000       0.63960000       0.05250000
    44  H          0.49870000       0.86040000       0.55250000
    45  H         -0.00480000       0.31150000       0.80920000
    46  H          0.49520000       0.18850000       0.30920000
    47  H         -0.00480000       0.81150000       0.69080000
    48  H          0.49520000       0.68850000       0.19080000
    49  H          0.89150000       0.27540000       0.14180000
    50  H          0.39150000       0.22460000       0.64180000
    51  H          0.89150000       0.77540000       0.35820000
    52  H          0.39150000       0.72460000       0.85820000
    53  N         -0.01280000       0.24250000       0.08110000
    54  N          0.48720000       0.25750000       0.58110000
    55  N         -0.01280000       0.74250000       0.41890000
    56  N          0.48720000       0.75750000       0.91890000
    57  N          0.19120000       0.19590000       0.84580000
    58  N          0.69120000       0.30410000       0.34580000
    59  N          0.19120000       0.69590000       0.65420000
    60  N          0.69120000       0.80410000       0.15420000
