data_CABCUD20
_symmetry_space_group_name_H-M    'P1'
_symmetry_Int_Tables_number       1
loop_
_symmetry_equiv_pos_site_id
_symmetry_equiv_pos_as_xyz
1 x,y,z
_cell_length_a                   5.92723
_cell_length_b                   8.36974
_cell_length_c                   13.1242
_cell_angle_alpha                81.5808
_cell_angle_beta                 87.1858
_cell_angle_gamma                82.2544
loop_
_atom_site_label
_atom_site_type_symbol
_atom_site_fract_x
_atom_site_fract_y
_atom_site_fract_z
     1  S          0.23267150      -0.00831870       0.39062000
     2  S          0.76732850       0.00831870       0.60938000
     3  O          0.04635000       0.67653000       0.41526000
     4  O          0.95365000       0.32347000       0.58474000
     5  N          0.25765000       0.84064000       0.48197000
     6  N          0.74235000       0.15936000       0.51803000
     7  H          0.34100000       0.84730000       0.53250000
     8  H          0.65900000       0.15270000       0.46750000
     9  N          0.31035000       0.63294000       0.65258000
    10  N          0.68965000       0.36706000       0.34742000
    11  C          0.40738000       0.92827000       0.28891200
    12  C          0.59262000       0.07173000       0.71108800
    13  O          0.00714000       0.02443000       0.35665000
    14  O         -0.00714000       0.97557000       0.64335000
    15  O          0.32914000       0.11883000       0.42926000
    16  O          0.67086000       0.88117000       0.57074000
    17  C          0.15567000       0.70106000       0.48551100
    18  C          0.84433000       0.29894000       0.51448900
    19  N          0.19526000       0.59485000       0.56909000
    20  N          0.80474000       0.40515000       0.43091000
    21  H          0.15030000       0.50050000       0.57300000
    22  H          0.84970000       0.49950000       0.42700000
    23  C          0.63466000       0.86405000       0.31241000
    24  C          0.36534000       0.13595000       0.68759000
    25  H          0.68640000       0.85120000       0.37930000
    26  H          0.31360000       0.14880000       0.62070000
    27  C          0.70198000       0.83747000       0.13041300
    28  C          0.29802000       0.16253000       0.86958700
    29  C          0.33128000       0.94537000       0.19071200
    30  C          0.66872000       0.05463000       0.80928800
    31  H          0.18180000      -0.01040000       0.17640000
    32  H          0.81820000       0.01040000       0.82360000
    33  C          0.47356000       0.89775000       0.11551000
    34  C          0.52644000       0.10225000       0.88449000
    35  H          0.41700000       0.90520000       0.04980000
    36  H          0.58300000       0.09480000       0.95020000
    37  C          0.77568000       0.82127000       0.23161300
    38  C          0.22432000       0.17873000       0.76838700
    39  H          0.92650000       0.77980000       0.24480000
    40  H          0.07350000       0.22020000       0.75520000
    41  C          0.15697000       0.62506000       0.74491000
    42  C          0.84303000       0.37494000       0.25509000
    43  H          0.16330000       0.51260000       0.77710000
    44  H          0.83670000       0.48740000       0.22290000
    45  H          0.00170000       0.66210000       0.72400000
    46  H         -0.00170000       0.33790000       0.27600000
    47  C          0.86247000       0.78946000       0.04561000
    48  C          0.13753000       0.21054000       0.95439000
    49  H          0.95790000       0.87320000       0.02480000
    50  H          0.04210000       0.12680000       0.97520000
    51  H          0.77720000       0.77510000       0.98790000
    52  H          0.22280000       0.22490000       0.01210000
    53  H          0.95540000       0.68910000       0.06940000
    54  H          0.04460000       0.31090000       0.93060000
    55  C          0.21876000       0.72805000       0.82359000
    56  C          0.78124000       0.27195000       0.17641000
    57  H          0.26230000       0.82880000       0.78660000
    58  H          0.73770000       0.17120000       0.21340000
    59  H          0.08350000       0.75580000       0.86530000
    60  H          0.91650000       0.24420000       0.13470000
    61  C          0.40576000       0.65086000       0.89371000
    62  C          0.59424000       0.34914000       0.10629000
    63  H          0.36320000       0.55040000       0.93180000
    64  H          0.63680000       0.44960000       0.06820000
    65  H          0.42540000       0.72320000       0.94300000
    66  H          0.57460000       0.27680000       0.05700000
    67  C          0.63256000       0.61356000       0.83441000
    68  C          0.36744000       0.38644000       0.16559000
    69  H          0.66720000       0.71170000       0.79090000
    70  H          0.33280000       0.28830000       0.20910000
    71  H          0.75350000       0.58010000       0.88320000
    72  H          0.24650000       0.41990000       0.11680000
    73  C          0.62547000       0.48226000       0.76901100
    74  C          0.37453000       0.51774000       0.23098900
    75  H          0.53340000       0.40360000       0.80590000
    76  H          0.46660000       0.59640000       0.19410000
    77  H          0.77900000       0.42660000       0.76310000
    78  H          0.22100000       0.57340000       0.23690000
    79  C          0.53477000       0.52996000       0.66021100
    80  C          0.46523000       0.47004000       0.33978900
    81  H          0.64520000       0.58750000       0.61800000
    82  H          0.35480000       0.41250000       0.38200000
    83  H          0.52300000       0.43110000       0.63150000
    84  H          0.47700000       0.56890000       0.36850000
