data_CABCUD
_symmetry_space_group_name_H-M    'P1'
_symmetry_Int_Tables_number       1
loop_
_symmetry_equiv_pos_site_id
_symmetry_equiv_pos_as_xyz
1 x,y,z
_cell_length_a                   13.5283
_cell_length_b                   9.2303
_cell_length_c                   6.3606
_cell_angle_alpha                85.803
_cell_angle_beta                 87.213
_cell_angle_gamma                79.013
loop_
_atom_site_label
_atom_site_type_symbol
_atom_site_fract_x
_atom_site_fract_y
_atom_site_fract_z
     1  C          0.40160000       0.40910000       0.25020000
     2  C          0.59840000       0.59090000       0.74980000
     3  C          0.30020000       0.36050000       0.26870000
     4  C          0.69980000       0.63950000       0.73130000
     5  C          0.24800000       0.37190000       0.06100000
     6  C          0.75200000       0.62810000       0.93900000
     7  C          0.30290000       0.30100000       0.87550000
     8  C          0.69710000       0.69900000       0.12450000
     9  C          0.39990000       0.18190000       0.91750000
    10  C          0.60010000       0.81810000       0.08250000
    11  C          0.48750000       0.24670000       0.97330000
    12  C          0.51250000       0.75330000       0.02670000
    13  N          0.48970000       0.29940000       0.18520000
    14  N          0.51030000       0.70060000       0.81480000
    15  N          0.50900000       0.17890000       0.33690000
    16  N          0.49100000       0.82110000       0.66310000
    17  C          0.59570000       0.14800000       0.43850000
    18  C          0.40430000       0.85200000       0.56150000
    19  O          0.61710000       0.04140000       0.56690000
    20  O          0.38290000       0.95860000       0.43310000
    21  N          0.66030000       0.24620000       0.38410000
    22  N          0.33970000       0.75380000       0.61590000
    23  S          0.77390000       0.22800000       0.47910000
    24  S          0.22610000       0.77200000       0.52090000
    25  O          0.81460000       0.34260000       0.36150000
    26  O          0.18540000       0.65740000       0.63850000
    27  O          0.76550000       0.22680000       0.70260000
    28  O          0.23450000       0.77320000       0.29740000
    29  C          0.83900000       0.05520000       0.40570000
    30  C          0.16100000       0.94480000       0.59430000
    31  C          0.86660000       0.03440000       0.19600000
    32  C          0.13340000       0.96560000       0.80400000
    33  C          0.92160000       0.89710000       0.14390000
    34  C          0.07840000       0.10290000       0.85610000
    35  C          0.94710000       0.78310000       0.29170000
    36  C          0.05290000       0.21690000       0.70830000
    37  C          0.91930000       0.80600000       0.50080000
    38  C          0.08070000       0.19400000       0.49920000
    39  C          0.86420000       0.94140000       0.55850000
    40  C          0.13580000       0.05860000       0.44150000
    41  C          0.00510000       0.63510000       0.23100000
    42  C         -0.00510000       0.36490000       0.76900000
    43  H          0.41600000       0.44300000       0.40300000
    44  H          0.58400000       0.55700000       0.59700000
    45  H          0.39500000       0.50300000       0.13600000
    46  H          0.60500000       0.49700000       0.86400000
    47  H          0.31200000       0.24700000       0.33000000
    48  H          0.68800000       0.75300000       0.67000000
    49  H          0.25200000       0.42900000       0.37700000
    50  H          0.74800000       0.57100000       0.62300000
    51  H          0.22700000       0.48800000       0.01500000
    52  H          0.77300000       0.51200000      -0.01500000
    53  H          0.18100000       0.32500000       0.09100000
    54  H          0.81900000       0.67500000       0.90900000
    55  H          0.25100000       0.24700000       0.80000000
    56  H          0.74900000       0.75300000       0.20000000
    57  H          0.32400000       0.38700000       0.76900000
    58  H          0.67600000       0.61300000       0.23100000
    59  H          0.42000000       0.12300000       0.77600000
    60  H          0.58000000       0.87700000       0.22400000
    61  H          0.38400000       0.10500000       0.04500000
    62  H          0.61600000       0.89500000       0.95500000
    63  H          0.49100000       0.34000000       0.86200000
    64  H          0.50900000       0.66000000       0.13800000
    65  H          0.55400000       0.16300000       0.95400000
    66  H          0.44600000       0.83700000       0.04600000
    67  H          0.47100000       0.11500000       0.36000000
    68  H          0.52900000       0.88500000       0.64000000
    69  H          0.64100000       0.31600000       0.28200000
    70  H          0.35900000       0.68400000       0.71800000
    71  H          0.84600000       0.12200000       0.07600000
    72  H          0.15400000       0.87800000       0.92400000
    73  H          0.94500000       0.88100000      -0.01900000
    74  H          0.05500000       0.11900000       0.01900000
    75  H          0.94000000       0.71800000       0.62000000
    76  H          0.06000000       0.28200000       0.38000000
    77  H          0.84200000       0.95800000       0.72200000
    78  H          0.15800000       0.04200000       0.27800000
    79  H          0.01800000       0.56100000       0.37100000
    80  H          0.98200000       0.43900000       0.62900000
    81  H          0.07700000       0.64700000       0.15700000
    82  H          0.92300000       0.35300000       0.84300000
    83  H          0.96200000       0.59000000       0.12200000
    84  H          0.03800000       0.41000000       0.87800000
