data_CABCUD39
_symmetry_space_group_name_H-M    'P1'
_symmetry_Int_Tables_number       1
loop_
_symmetry_equiv_pos_site_id
_symmetry_equiv_pos_as_xyz
1 x,y,z
_cell_length_a                   6.30911
_cell_length_b                   8.927015
_cell_length_c                   13.5763
_cell_angle_alpha                81.88216
_cell_angle_beta                 86.07316
_cell_angle_gamma                85.16713
loop_
_atom_site_label
_atom_site_type_symbol
_atom_site_fract_x
_atom_site_fract_y
_atom_site_fract_z
     1  S          0.24796130       0.97848900       0.39256600
     2  S          0.75203870       0.02151100       0.60743400
     3  O          0.05873000       0.67622000       0.41186170
     4  O          0.94127000       0.32378000       0.58813830
     5  N          0.25454000       0.83623000       0.48222000
     6  N          0.74546000       0.16377000       0.51778000
     7  N          0.29384000       0.63443000       0.64542000
     8  N          0.70616000       0.36557000       0.35458000
     9  O          0.34623000       0.09522000       0.43185170
    10  O          0.65377000       0.90478000       0.56814830
    11  O          0.03973000       0.01022000       0.35772180
    12  O          0.96027000      -0.01022000       0.64227820
    13  C          0.15795000       0.70094000       0.48253000
    14  C          0.84205000       0.29906000       0.51747000
    15  C          0.41685000       0.91743000       0.29492000
    16  C          0.58315000       0.08257000       0.70508000
    17  N          0.18445000       0.60063000       0.56492000
    18  N          0.81555000       0.39937000       0.43508000
    19  C          0.62625000       0.86553000       0.31293000
    20  C          0.37375000       0.13447000       0.68707000
    21  H          0.67530000       0.85800000       0.37660000
    22  H          0.32470000       0.14200000       0.62340000
    23  C          0.34235000       0.92914000       0.20023000
    24  C          0.65765000       0.07086000       0.79977000
    25  H          0.20190000       0.96410000       0.18880000
    26  H          0.79810000       0.03590000       0.81120000
    27  C          0.69185000       0.83604000       0.13803000
    28  C          0.30815000       0.16396000       0.86197000
    29  C          0.76175000       0.82474000       0.23373000
    30  C          0.23825000       0.17526000       0.76627000
    31  H          0.90180000       0.78920000       0.24530000
    32  H          0.09820000       0.21080000       0.75470000
    33  C          0.47985000       0.88784000       0.12253000
    34  C          0.52015000       0.11216000       0.87747000
    35  H          0.42990000       0.89480000       0.05900000
    36  H          0.57010000       0.10520000       0.94100000
    37  C          0.49705000       0.53784000       0.65273000
    38  C          0.50295000       0.46216000       0.34727000
    39  H          0.60260000       0.58610000       0.60630000
    40  H          0.39740000       0.41390000       0.39370000
    41  H          0.47510000       0.44150000       0.63100000
    42  H          0.52490000       0.55850000       0.36900000
    43  C          0.14815000       0.62954000       0.73543000
    44  C          0.85185000       0.37046000       0.26457000
    45  H          0.15060000       0.52610000       0.76920000
    46  H          0.84940000       0.47390000       0.23080000
    47  H          0.00400000       0.65930000       0.71570000
    48  H         -0.00400000       0.34070000       0.28430000
    49  C          0.20705000       0.73354000       0.80793000
    50  C          0.79295000       0.26646000       0.19207000
    51  H          0.23700000       0.83050000       0.76980000
    52  H          0.76300000       0.16950000       0.23020000
    53  H          0.08320000       0.75140000       0.85230000
    54  H          0.91680000       0.24860000       0.14770000
    55  C          0.84106000       0.78854000       0.05413000
    56  C          0.15894000       0.21146000       0.94587000
    57  H          0.80450000       0.84900000      -0.00740000
    58  H          0.19550000       0.15100000       0.00740000
    59  H          0.82830000       0.68340000       0.04920000
    60  H          0.17170000       0.31660000       0.95080000
    61  H         -0.01500000       0.80280000       0.06730000
    62  H          0.01500000       0.19720000       0.93270000
    63  C          0.39336000       0.67914000       0.87083000
    64  C          0.60664000       0.32086000       0.12917000
    65  H          0.35720000       0.58910000       0.91560000
    66  H          0.64280000       0.41090000       0.08440000
    67  H          0.41700000       0.75670000       0.91120000
    68  H          0.58300000       0.24330000       0.08880000
    69  C          0.58815000       0.50584000       0.75453000
    70  C          0.41185000       0.49416000       0.24547000
    71  H          0.73080000       0.45760000       0.74680000
    72  H          0.26920000       0.54240000       0.25320000
    73  H          0.50290000       0.43300000       0.79580000
    74  H          0.49710000       0.56700000       0.20420000
    75  C          0.60035000       0.64174000       0.81073000
    76  C          0.39965000       0.35826000       0.18927000
    77  H          0.71560000       0.62010000       0.85560000
    78  H          0.28440000       0.37990000       0.14440000
    79  H          0.63300000       0.72970000       0.76330000
    80  H          0.36700000       0.27030000       0.23670000
    81  H          0.31760000       0.83940000       0.53030000
    82  H          0.68240000       0.16060000       0.46970000
    83  H          0.13160000       0.51650000       0.56630000
    84  H          0.86840000       0.48350000       0.43370000
