data_CABCUD06
_symmetry_space_group_name_H-M    'P1'
_symmetry_Int_Tables_number       1
loop_
_symmetry_equiv_pos_site_id
_symmetry_equiv_pos_as_xyz
1 x,y,z
_cell_length_a                   10.45525
_cell_length_b                   13.87127
_cell_length_c                   11.23586
_cell_angle_alpha                90.0
_cell_angle_beta                 105.1634
_cell_angle_gamma                90.0
loop_
_atom_site_label
_atom_site_type_symbol
_atom_site_fract_x
_atom_site_fract_y
_atom_site_fract_z
     1  S          0.14533400       0.08210300       0.65735300
     2  S          0.35466600       0.58210300       0.84264700
     3  S          0.85466600       0.91789700       0.34264700
     4  S          0.64533400       0.41789700       0.15735300
     5  O          0.06629150       0.07767800       0.89501100
     6  O          0.43370850       0.57767800       0.60498900
     7  O          0.93370850       0.92232200       0.10498900
     8  O          0.56629150       0.42232200       0.39501100
     9  O          0.26868130       0.08552900       0.74940110
    10  O          0.23131870       0.58552900       0.75059890
    11  O          0.73131870       0.91447100       0.25059890
    12  O          0.76868130       0.41447100       0.24940110
    13  N          0.04550150       0.00922100       0.70495120
    14  N          0.45449850       0.50922100       0.79504880
    15  N          0.95449850      -0.00922100       0.29504880
    16  N          0.54550150       0.49077900       0.20495120
    17  H          0.00420000       0.97338500       0.65520000
    18  H          0.49580000       0.47338500       0.84480000
    19  H         -0.00420000       0.02661500       0.34480000
    20  H          0.50420000       0.52661500       0.15520000
    21  N          0.96726840       0.93217100       0.85319130
    22  N          0.53273160       0.43217100       0.64680870
    23  N          0.03273160       0.06782900       0.14680870
    24  N          0.46726840       0.56782900       0.35319130
    25  H          0.95980000       0.92798500       0.92820000
    26  H          0.54020000       0.42798500       0.57180000
    27  H          0.04020000       0.07201500       0.07180000
    28  H          0.45980000       0.57201500       0.42820000
    29  N          0.94751850       0.84817100       0.77882120
    30  N          0.55248150       0.34817100       0.72117880
    31  N          0.05248150       0.15182900       0.22117880
    32  N          0.44751850       0.65182900       0.27882120
    33  O          0.14192130       0.04741900       0.53623100
    34  O          0.35807870       0.54741900       0.96376900
    35  O          0.85807870       0.95258100       0.46376900
    36  O          0.64192130       0.45258100       0.03623100
    37  C          0.07369160       0.19778110       0.64353130
    38  C          0.42630840       0.69778110       0.85646870
    39  C          0.92630840       0.80221890       0.35646870
    40  C          0.57369160       0.30221890       0.14353130
    41  C          0.02863170       0.00980110       0.82414130
    42  C          0.47136830       0.50980110       0.67585870
    43  C          0.97136830      -0.00980110       0.17585870
    44  C          0.52863170       0.49019890       0.32414130
    45  C          0.10772000       0.26239120       0.74152160
    46  C          0.39228000       0.76239120       0.75847840
    47  C          0.89228000       0.73760880       0.25847840
    48  C          0.60772000       0.23760880       0.24152160
    49  H          0.16720000       0.24161600       0.81620000
    50  H          0.33280000       0.74161600       0.68380000
    51  H          0.83280000       0.75838400       0.18380000
    52  H          0.66720000       0.25838400       0.31620000
    53  C          0.96384810       0.38184120       0.61832160
    54  C          0.53615190       0.88184120       0.88167840
    55  C          0.03615190       0.61815880       0.38167840
    56  C          0.46384810       0.11815880       0.11832160
    57  C          0.05692000       0.77956860       0.82418190
    58  C          0.44308000       0.27956860       0.67581810
    59  C          0.94308000       0.22043140       0.17581810
    60  C          0.55692000       0.72043140       0.32418190
    61  H          0.05420000       0.73268300       0.75820000
    62  H          0.44580000       0.23268300       0.74180000
    63  H          0.94580000       0.26731700       0.24180000
    64  H          0.55420000       0.76731700       0.25820000
    65  H          0.13420000       0.81828300       0.83420000
    66  H          0.36580000       0.31828300       0.66580000
    67  H          0.86580000       0.18171700       0.16580000
    68  H          0.63420000       0.68171700       0.33420000
    69  C         -0.01422000       0.22442130       0.53327160
    70  C          0.51422000       0.72442130       0.96672840
    71  C          0.01422000       0.77557870       0.46672840
    72  C          0.48578000       0.27557870       0.03327160
    73  H          0.96080000       0.17941600       0.46620000
    74  H          0.53920000       0.67941600       0.03380000
    75  H          0.03920000       0.82058400       0.53380000
    76  H          0.46080000       0.32058400       0.96620000
    77  C          0.93168000       0.31610130       0.52164170
    78  C          0.56832000       0.81610130       0.97835830
    79  C          0.06832000       0.68389870       0.47835830
    80  C          0.43168000       0.18389870       0.02164170
    81  H          0.87280000       0.33481600       0.44520000
    82  H          0.62720000       0.83481600       0.05480000
    83  H          0.12720000       0.66518400       0.55480000
    84  H          0.37280000       0.16518400       0.94520000
    85  C          0.05272000       0.35375130       0.72710170
    86  C          0.44728000       0.85375130       0.77289830
    87  C          0.94728000       0.64624870       0.27289830
    88  C          0.55272000       0.14624870       0.22710170
    89  H          0.07620000       0.39561700       0.79320000
    90  H          0.42380000       0.89561700       0.70680000
    91  H          0.92380000       0.60438300       0.20680000
    92  H          0.57620000       0.10438300       0.29320000
    93  C          0.90098000       0.48041130       0.60462000
    94  C          0.59902000       0.98041130       0.89538000
    95  C          0.09902000       0.51958870       0.39538000
    96  C          0.40098000       0.01958870       0.10462000
    97  H          0.83600000       0.48330000       0.65100000
    98  H          0.66400000       0.98330000       0.84900000
    99  H          0.16400000       0.51670000       0.34900000
   100  H          0.33600000       0.01670000       0.15100000
   101  H          0.85900000       0.49240000       0.51910000
   102  H          0.64100000      -0.00760000       0.98090000
   103  H          0.14100000       0.50760000       0.48090000
   104  H          0.35900000       0.00760000       0.01910000
   105  H          0.96790000       0.52830000       0.63470000
   106  H          0.53210000       0.02830000       0.86530000
   107  H          0.03210000       0.47170000       0.36530000
   108  H          0.46790000       0.97170000       0.13470000
   109  C          0.81248000       0.81241860       0.77332000
   110  C          0.68752000       0.31241860       0.72668000
   111  C          0.18752000       0.18758140       0.22668000
   112  C          0.31248000       0.68758140       0.27332000
   113  H          0.75180000       0.85058200       0.71220000
   114  H          0.74820000       0.35058200       0.78780000
   115  H          0.24820000       0.14941800       0.28780000
   116  H          0.25180000       0.64941800       0.21220000
   117  H          0.79080000       0.83248300       0.85920000
   118  H          0.70920000       0.33248300       0.64080000
   119  H          0.20920000       0.16751700       0.14080000
   120  H          0.29080000       0.66751700       0.35920000
   121  C          0.06053000       0.72409840       0.94182000
   122  C          0.43947000       0.22409840       0.55818000
   123  C          0.93947000       0.27590160       0.05818000
   124  C          0.56053000       0.77590160       0.44182000
   125  H          0.02330000       0.76248100      -0.00070000
   126  H          0.47670000       0.26248100       0.50070000
   127  H          0.97670000       0.23751900       0.00070000
   128  H          0.52330000       0.73751900       0.49930000
   129  H          0.14830000       0.70858100       0.98230000
   130  H          0.35170000       0.20858100       0.51770000
   131  H          0.85170000       0.29141900       0.01770000
   132  H          0.64830000       0.79141900       0.48230000
   133  C          0.98077000       0.63114830       0.91992000
   134  C          0.51923000       0.13114830       0.58008000
   135  C          0.01923000       0.36885170       0.08008000
   136  C          0.48077000       0.86885170       0.41992000
   137  H          0.01930000       0.59080000       0.86030000
   138  H          0.48070000       0.09080000       0.63970000
   139  H          0.98070000       0.40920000       0.13970000
   140  H          0.51930000       0.90920000       0.36030000
   141  H         -0.00730000       0.59280000      -0.00470000
   142  H          0.50730000       0.09280000       0.50470000
   143  H          0.00730000       0.40720000       0.00470000
   144  H          0.49270000       0.90720000       0.49530000
   145  C          0.78937000       0.70569840       0.75193000
   146  C          0.71063000       0.20569840       0.74807000
   147  C          0.21063000       0.29430160       0.24807000
   148  C          0.28937000       0.79430160       0.25193000
   149  H          0.83270000       0.68380000       0.68330000
   150  H          0.66730000       0.18380000       0.81670000
   151  H          0.16730000       0.31620000       0.31670000
   152  H          0.33270000       0.81620000       0.18330000
   153  H          0.69070000       0.69780000       0.71920000
   154  H          0.80930000       0.19780000       0.78080000
   155  H          0.30930000       0.30220000       0.28080000
   156  H          0.19070000       0.80220000       0.21920000
   157  C          0.83377000       0.64306810       0.86723000
   158  C          0.66623000       0.14306810       0.63277000
   159  C          0.16623000       0.35693190       0.13277000
   160  C          0.33377000       0.85693190       0.36723000
   161  H          0.79470000       0.57580000       0.84830000
   162  H          0.70530000       0.07580000       0.65170000
   163  H          0.20530000       0.42420000       0.15170000
   164  H          0.29470000       0.92420000       0.34830000
   165  H          0.80970000       0.67980000       0.92830000
   166  H          0.69030000       0.17980000       0.57170000
   167  H          0.19030000       0.32020000       0.07170000
   168  H          0.30970000       0.82020000       0.42830000
