data_CABCUD14
_symmetry_space_group_name_H-M    'P1'
_symmetry_Int_Tables_number       1
loop_
_symmetry_equiv_pos_site_id
_symmetry_equiv_pos_as_xyz
1 x,y,z
_cell_length_a                   5.76922
_cell_length_b                   8.4212
_cell_length_c                   12.721211
_cell_angle_alpha                81.23112
_cell_angle_beta                 84.7405
_cell_angle_gamma                85.5579
loop_
_atom_site_label
_atom_site_type_symbol
_atom_site_fract_x
_atom_site_fract_y
_atom_site_fract_z
     1  S          0.01953000       0.24956000       0.21717140
     2  S         -0.01953000       0.75044000       0.78282860
     3  O          0.93244000       0.45111300       0.37813000
     4  O          0.06756000       0.54888700       0.62187000
     5  O          0.77174000       0.24771200       0.23413000
     6  O          0.22826000       0.75228800       0.76587000
     7  C          0.06451000       0.33820000       0.40285000
     8  C          0.93549000       0.66180000       0.59715000
     9  N          0.15537000       0.30381500       0.49794000
    10  N          0.84463000       0.69618500       0.50206000
    11  H          0.10870000       0.35930000       0.54810000
    12  H          0.89130000       0.64070000       0.45190000
    13  C          0.09009000       0.44051900       0.15585000
    14  C          0.90991000       0.55948100       0.84415000
    15  N          0.13168000       0.22821600       0.33334000
    16  N          0.86832000       0.77178400       0.66666000
    17  H          0.23120000       0.14930000       0.35060000
    18  H          0.76880000       0.85070000       0.64940000
    19  O          0.15087000       0.13041400       0.16284000
    20  O          0.84913000       0.86958600       0.83716000
    21  N          0.32767000       0.17641500       0.51444000
    22  N          0.67233000       0.82358500       0.48556000
    23  C          0.32089000       0.46741900       0.12685000
    24  C          0.67911000       0.53258100       0.87315000
    25  H          0.43880000       0.38920000       0.14530000
    26  H          0.56120000       0.61080000       0.85470000
    27  C          0.96921000       0.69921900       0.07265000
    28  C          0.03079000       0.30078100       0.92735000
    29  H          0.84960000       0.77510000       0.05260000
    30  H          0.15040000       0.22490000       0.94740000
    31  C          0.91421000       0.55621900       0.13165000
    32  C          0.08579000       0.44378100       0.86835000
    33  H          0.76010000       0.53720000       0.15500000
    34  H          0.23990000       0.46280000       0.84500000
    35  C          0.26181000       0.06791900       0.61345000
    36  C          0.73819000       0.93208100       0.38655000
    37  H          0.37660000       0.97730000       0.62090000
    38  H          0.62340000       0.02270000       0.37910000
    39  H          0.11300000       0.02600000       0.60630000
    40  H          0.88700000       0.97400000       0.39370000
    41  C          0.19939000       0.73551900       0.04125000
    42  C          0.80061000       0.26448100       0.95875000
    43  C          0.36999000       0.61381900       0.06965000
    44  C          0.63001000       0.38618100       0.93035000
    45  H          0.52500000       0.63320000       0.04860000
    46  H          0.47500000       0.36680000       0.95140000
    47  C          0.55599000       0.24261700       0.51075000
    48  C          0.44401000       0.75738300       0.48925000
    49  H          0.58040000       0.31200000       0.44290000
    50  H          0.41960000       0.68800000       0.55710000
    51  H          0.67380000       0.15400000       0.51120000
    52  H          0.32620000       0.84600000       0.48880000
    53  C          0.26959000       0.89091900       0.98265000
    54  C          0.73041000       0.10908100       0.01735000
    55  H          0.15840000       0.93190000       0.93190000
    56  H          0.84160000       0.06810000       0.06810000
    57  H          0.42080000       0.87640000       0.94590000
    58  H          0.57920000       0.12360000       0.05410000
    59  H          0.27520000       0.96590000       0.03200000
    60  H          0.72480000       0.03410000       0.96800000
    61  C          0.24259000       0.14471900       0.71455000
    62  C          0.75741000       0.85528100       0.28545000
    63  H          0.18060000       0.25530000       0.69810000
    64  H          0.81940000       0.74470000       0.30190000
    65  H          0.13180000       0.08840000       0.76620000
    66  H          0.86820000       0.91160000       0.23380000
    67  C          0.47048000       0.14371800       0.76455000
    68  C          0.52952000       0.85628200       0.23545000
    69  H          0.43890000       0.18970000       0.83020000
    70  H          0.56110000       0.81030000       0.16980000
    71  H          0.52720000       0.03250000       0.78360000
    72  H          0.47280000       0.96750000       0.21640000
    73  C          0.66379000       0.23241700       0.69775000
    74  C          0.33621000       0.76758300       0.30225000
    75  H          0.72890000       0.29950000       0.74160000
    76  H          0.27110000       0.70050000       0.25840000
    77  H          0.78610000       0.15360000       0.67900000
    78  H          0.21390000       0.84640000       0.32100000
    79  C          0.59821000       0.33631700       0.59714000
    80  C          0.40179000       0.66368300       0.40286000
    81  H          0.45820000       0.40270000       0.61300000
    82  H          0.54180000       0.59730000       0.38700000
    83  H          0.72220000       0.40750000       0.57150000
    84  H          0.27780000       0.59250000       0.42850000
