data_CACDAM
_symmetry_space_group_name_H-M    'P1'
_symmetry_Int_Tables_number       1
loop_
_symmetry_equiv_pos_site_id
_symmetry_equiv_pos_as_xyz
1 x,y,z
_cell_length_a                   9.4312
_cell_length_b                   10.3072
_cell_length_c                   8.29101
_cell_angle_alpha                110.2901
_cell_angle_beta                 113.7501
_cell_angle_gamma                67.102
loop_
_atom_site_label
_atom_site_type_symbol
_atom_site_fract_x
_atom_site_fract_y
_atom_site_fract_z
     1  O          0.01862000       0.51432000       0.29912000
     2  O          0.98138000       0.48568000       0.70088000
     3  O          0.20212000       0.42962000       0.54012000
     4  O          0.79788000       0.57038000       0.45988000
     5  O          0.50672000       0.30842000       0.54332000
     6  O          0.49328000       0.69158000       0.45668000
     7  O          0.72542000       0.25192000       0.37722000
     8  O          0.27458000       0.74808000       0.62278000
     9  C          0.28813000       0.41603000       0.30023000
    10  C          0.71187000       0.58397000       0.69977000
    11  C          0.45003000       0.34742000       0.38293000
    12  C          0.54997000       0.65258000       0.61707000
    13  C          0.56473000       0.31573000       0.29773000
    14  C          0.43527000       0.68427000       0.70227000
    15  C          0.51903000       0.34853000       0.13323000
    16  C          0.48097000       0.65147000       0.86677000
    17  C          0.35843000       0.41443000       0.05053000
    18  C          0.64157000       0.58557000       0.94947000
    19  C          0.24323000       0.44843000       0.13253000
    20  C          0.75677000       0.55157000       0.86747000
    21  C          0.16703000       0.45393000       0.39043000
    22  C          0.83297000       0.54607000       0.60957000
    23  H          0.95150000       0.52620000       0.34930000
    24  H          0.04850000       0.47380000       0.65070000
    25  H          0.41190000       0.33960000       0.58360000
    26  H          0.58810000       0.66040000       0.41640000
    27  H          0.73970000       0.24280000       0.48470000
    28  H          0.26030000       0.75720000       0.51530000
    29  H          0.59500000       0.32530000       0.07660000
    30  H          0.40500000       0.67470000       0.92340000
    31  H          0.32860000       0.43630000       0.94090000
    32  H          0.67140000       0.56370000       0.05910000
    33  H          0.13700000       0.49160000       0.07680000
    34  H          0.86300000       0.50840000       0.92320000
    35  O          0.15662000       0.11132000       0.69118000
    36  O          0.84338000       0.88868000       0.30882000
    37  O          0.91012000       0.19662000       0.72228000
    38  O          0.08988000       0.80338000       0.27772000
    39  O          0.88202000       0.22812000       0.03722000
    40  O          0.11798000       0.77188000       0.96278000
    41  O          0.02782000       0.16712000       0.36542000
    42  O          0.97218000       0.83288000       0.63458000
    43  C          0.13533000       0.11172000       0.96307000
    44  C          0.86467000       0.88828000       0.03693000
    45  C          0.04232000       0.15562000       0.07863000
    46  C          0.95768000       0.84438000       0.92137000
    47  C          0.11703000       0.12403000       0.24973000
    48  C          0.88297000       0.87597000       0.75027000
    49  C          0.27813000       0.05043000       0.30343000
    50  C          0.72187000       0.94957000       0.69657000
    51  C          0.36953000       0.00703000       0.18893000
    52  C          0.63047000      -0.00703000       0.81107000
    53  C          0.29873000       0.03773000       0.01983000
    54  C          0.70127000       0.96227000       0.98017000
    55  C          0.05553000       0.14423000       0.78297000
    56  C          0.94447000       0.85577000       0.21703000
    57  H          0.11310000       0.13050000       0.58940000
    58  H          0.88690000       0.86950000       0.41060000
    59  H          0.84680000       0.23300000       0.93130000
    60  H          0.15320000       0.76700000       0.06870000
    61  H          0.93140000       0.18860000       0.30870000
    62  H          0.06860000       0.81140000       0.69130000
    63  H          0.32460000       0.02800000       0.41470000
    64  H          0.67540000       0.97200000       0.58530000
    65  H          0.47810000       0.95800000       0.22600000
    66  H          0.52190000       0.04200000       0.77400000
    67  H          0.36150000       0.01020000       0.94530000
    68  H          0.63850000      -0.01020000       0.05470000
