data_CACDAM01
_symmetry_space_group_name_H-M    'P1'
_symmetry_Int_Tables_number       1
loop_
_symmetry_equiv_pos_site_id
_symmetry_equiv_pos_as_xyz
1 x,y,z
_cell_length_a                   5.3383
_cell_length_b                   5.4863
_cell_length_c                   22.49611
_cell_angle_alpha                90.0
_cell_angle_beta                 103.0438
_cell_angle_gamma                90.0
loop_
_atom_site_label
_atom_site_type_symbol
_atom_site_fract_x
_atom_site_fract_y
_atom_site_fract_z
     1  O          0.96093000       0.18463000       0.06623600
     2  O          0.53907000       0.68463000       0.43376400
     3  O          0.03907000       0.81537000       0.93376400
     4  O          0.46093000       0.31537000       0.56623600
     5  O          0.78563000       0.84253000       0.02275600
     6  O          0.71437000       0.34253000       0.47724400
     7  O          0.21437000       0.15747000       0.97724400
     8  O          0.28563000       0.65747000       0.52275600
     9  O          0.43523000       0.61703000       0.06519700
    10  O          0.06477000       0.11703000       0.43480300
    11  O          0.56477000       0.38297000       0.93480300
    12  O          0.93523000       0.88297000       0.56519700
    13  C          0.66463000      -0.02177000       0.11196800
    14  C          0.83537000       0.47823000       0.38803200
    15  C          0.33537000       0.02177000       0.88803200
    16  C          0.16463000       0.52177000       0.61196800
    17  O          0.16683000       0.59233000       0.15282700
    18  O          0.33317000       0.09233000       0.34717300
    19  O          0.83317000       0.40767000       0.84717300
    20  O          0.66683000       0.90767000       0.65282700
    21  C          0.38664000       0.93704000       0.20198800
    22  C          0.11336000       0.43704000       0.29801200
    23  C          0.61336000       0.06296000       0.79801200
    24  C          0.88664000       0.56296000       0.70198800
    25  C          0.70274000       0.14554000       0.16031900
    26  C          0.79726000       0.64554000       0.33968100
    27  C          0.29726000       0.85446000       0.83968100
    28  C          0.20274000       0.35446000       0.66031900
    29  C          0.48714000       0.78923000       0.10977800
    30  C          0.01286000       0.28923000       0.39022200
    31  C          0.51286000       0.21077000       0.89022200
    32  C         -0.01286000       0.71077000       0.60977800
    33  C          0.34643000       0.77074000       0.15514800
    34  C          0.15357000       0.27074000       0.34485200
    35  C          0.65357000       0.22926000       0.84485200
    36  C          0.84643000       0.72926000       0.65514800
    37  C          0.80824000      -0.00416000       0.06379800
    38  C          0.69176000       0.49584000       0.43620200
    39  C          0.19176000       0.00416000       0.93620200
    40  C          0.30824000       0.50416000       0.56379800
    41  C          0.56464000       0.12254000       0.20486900
    42  C          0.93536000       0.62254000       0.29513100
    43  C          0.43536000       0.87746000       0.79513100
    44  C          0.06464000       0.37746000       0.70486900
    45  H          0.28940000       0.92130000       0.23329000
    46  H          0.21060000       0.42130000       0.26671000
    47  H          0.71060000       0.07870000       0.76671000
    48  H          0.78940000       0.57870000       0.73329000
    49  H          0.59140000       0.23840000       0.23621000
    50  H          0.90860000       0.73840000       0.26379000
    51  H          0.40860000       0.76160000       0.76379000
    52  H          0.09140000       0.26160000       0.73621000
    53  H          0.82340000       0.27050000       0.16071000
    54  H          0.67660000       0.77050000       0.33929000
    55  H          0.17660000       0.72950000       0.83929000
    56  H          0.32340000       0.22950000       0.66071000
    57  H          0.54450000       0.64550000       0.04211300
    58  H          0.95550000       0.14550000       0.45788700
    59  H          0.45550000       0.35450000       0.95788700
    60  H          0.04450000       0.85450000       0.54211300
    61  H          0.16950000       0.50450000       0.12511300
    62  H          0.33050000       0.00450000       0.37488700
    63  H          0.83050000       0.49550000       0.87488700
    64  H          0.66950000      -0.00450000       0.62511300
    65  H          0.04350000       0.17750000       0.03581300
    66  H          0.45650000       0.67750000       0.46418700
    67  H          0.95650000       0.82250000       0.96418700
    68  H          0.54350000       0.32250000       0.53581300
