data_CACDAM02
_symmetry_space_group_name_H-M    'P1'
_symmetry_Int_Tables_number       1
loop_
_symmetry_equiv_pos_site_id
_symmetry_equiv_pos_as_xyz
1 x,y,z
_cell_length_a                   3.65593
_cell_length_b                   7.39236
_cell_length_c                   47.5533
_cell_angle_alpha                90.0
_cell_angle_beta                 91.8103
_cell_angle_gamma                90.0
loop_
_atom_site_label
_atom_site_type_symbol
_atom_site_fract_x
_atom_site_fract_y
_atom_site_fract_z
     1  O          0.21893000       0.29610180       0.62119200
     2  O          0.28107000       0.79610180       0.87880800
     3  O          0.78107000       0.70389820       0.37880800
     4  O          0.71893000       0.20389820       0.12119200
     5  H          0.14160000       0.18730000       0.62505000
     6  H          0.35840000       0.68730000       0.87495000
     7  H          0.85840000       0.81270000       0.37495000
     8  H          0.64160000       0.31270000       0.12505000
     9  O          0.63797000       0.23488160       0.50244200
    10  O          0.86203000       0.73488160      -0.00244200
    11  O          0.36203000       0.76511840       0.49755800
    12  O          0.13797000       0.26511840       0.00244200
    13  H          0.55440000       0.14430000       0.49135000
    14  H          0.94560000       0.64430000       0.00865000
    15  H          0.44560000       0.85570000       0.50865000
    16  H          0.05440000       0.35570000       0.99135000
    17  O          0.90417000       0.06161160       0.58465200
    18  O          0.59583000       0.56161160       0.91534800
    19  O          0.09583000       0.93838840       0.41534800
    20  O          0.40417000       0.43838840       0.08465200
    21  O          0.63037000       0.00825150       0.53348200
    22  O          0.86963000       0.50825150       0.96651800
    23  O          0.36963000      -0.00825150       0.46651800
    24  O          0.13037000       0.49174850       0.03348200
    25  C          0.11934000       0.35292000       0.59489300
    26  C          0.38066000       0.85292000       0.90510700
    27  C          0.88066000       0.64708000       0.40510700
    28  C          0.61934000       0.14708000       0.09489300
    29  C          0.95706000       0.23292000       0.57545300
    30  C          0.54294000       0.73292000       0.92454700
    31  C          0.04294000       0.76708000       0.42454700
    32  C          0.45706000       0.26708000       0.07545300
    33  C          0.86406000       0.29422000       0.54828300
    34  C          0.63594000       0.79422000       0.95171700
    35  C          0.13594000       0.70578000       0.45171700
    36  C          0.36406000       0.20578000       0.04828300
    37  C          0.70176000       0.16882000       0.52775300
    38  C          0.79824000       0.66882000       0.97224700
    39  C          0.29824000       0.83118000       0.47224700
    40  C          0.20176000       0.33118000       0.02775300
    41  C          0.92796000       0.47532000       0.54109300
    42  C          0.57204000       0.97532000       0.95890700
    43  C          0.07204000       0.52468000       0.45890700
    44  C          0.42796000       0.02468000       0.04109300
    45  H          0.86226000       0.51702000       0.52318300
    46  H          0.63774000       0.01702000       0.97681700
    47  H          0.13774000       0.48298000       0.47681700
    48  H          0.36226000      -0.01702000       0.02318300
    49  C          0.08784000       0.59122000       0.56049300
    50  C          0.41216000       0.09122000       0.93950700
    51  C          0.91216000       0.40878000       0.43950700
    52  C          0.58784000       0.90878000       0.06049300
    53  H          0.13264000       0.71082000       0.55559300
    54  H          0.36736000       0.21082000       0.94440700
    55  H          0.86736000       0.28918000       0.44440700
    56  H          0.63264000       0.78918000       0.05559300
    57  C          0.18314000       0.53002000       0.58752300
    58  C          0.31686000       0.03002000       0.91247700
    59  C          0.81686000       0.46998000       0.41247700
    60  C          0.68314000       0.96998000       0.08752300
    61  H          0.28994000       0.60912000       0.60058300
    62  H          0.21006000       0.10912000       0.89941700
    63  H          0.71006000       0.39088000       0.39941700
    64  H          0.78994000       0.89088000       0.10058300
    65  H          0.79430000       0.00140000       0.57006000
    66  H          0.70570000       0.50140000       0.92994000
    67  H          0.20570000      -0.00140000       0.42994000
    68  H          0.29430000       0.49860000       0.07006000
    69  O          0.23003000       0.07681150       0.69365200
    70  O          0.26997000       0.57681150       0.80634800
    71  O          0.76997000       0.92318850       0.30634800
    72  O          0.73003000       0.42318850       0.19365200
    73  H          0.31250000       0.16330000       0.68274000
    74  H          0.18750000       0.66330000       0.81726000
    75  H          0.68750000       0.83670000       0.31726000
    76  H          0.81250000       0.33670000       0.18274000
    77  O          0.57133000       0.34891140       0.66994200
    78  O          0.92867000       0.84891140       0.83005800
    79  O          0.42867000       0.65108860       0.33005800
    80  O          0.07133000       0.15108860       0.16994200
    81  H          0.52160000       0.38630000       0.65335000
    82  H         -0.02160000       0.88630000       0.84665000
    83  H          0.47840000       0.61370000       0.34665000
    84  H          0.02160000       0.11370000       0.15335000
    85  O          0.74283000       0.66476160       0.64519200
    86  O          0.75717000       0.16476160       0.85480800
    87  O          0.25717000       0.33523840       0.35480800
    88  O          0.24283000       0.83523840       0.14519200
    89  O          0.04823000       0.98091150       0.65080200
    90  O          0.45177000       0.48091150       0.84919800
    91  O          0.95177000       0.01908850       0.34919800
    92  O          0.54823000       0.51908850       0.15080200
    93  C          0.08134000       0.95632000       0.67640300
    94  C          0.41866000       0.45632000       0.82359700
    95  C          0.91866000       0.04368000       0.32359700
    96  C          0.58134000       0.54368000       0.17640300
    97  C         -0.03376000       0.78842000       0.68993300
    98  C          0.53376000       0.28842000       0.81006700
    99  C          0.03376000       0.21158000       0.31006700
   100  C          0.46624000       0.71158000       0.18993300
   101  C          0.81054000       0.65062000       0.67330300
   102  C          0.68946000       0.15062000       0.82669700
   103  C          0.18946000       0.34938000       0.32669700
   104  C          0.31054000       0.84938000       0.17330300
   105  C          0.71854000       0.48712000       0.68577300
   106  C          0.78146000      -0.01288000       0.81422700
   107  C          0.28146000       0.51288000       0.31422700
   108  C          0.21854000       0.01288000       0.18577300
   109  C          0.77674000       0.46102000       0.71428300
   110  C          0.72326000       0.96102000       0.78571700
   111  C          0.22326000       0.53898000       0.28571700
   112  C          0.27674000       0.03898000       0.21428300
   113  H          0.71754000       0.35082000       0.72239300
   114  H          0.78246000       0.85082000       0.77760700
   115  H          0.28246000       0.64918000       0.27760700
   116  H          0.21754000       0.14918000       0.22239300
   117  C          0.92424000       0.59992000       0.73099300
   118  C          0.57576000       0.09992000       0.76900700
   119  C          0.07576000       0.40008000       0.26900700
   120  C          0.42424000       0.90008000       0.23099300
   121  H          0.95934000       0.58282000       0.75026300
   122  H          0.54066000       0.08282000       0.74973700
   123  H          0.04066000       0.41718000       0.24973700
   124  H          0.45934000       0.91718000       0.25026300
   125  C          0.01734000       0.76102000       0.71901300
   126  C          0.48266000       0.26102000       0.78098700
   127  C         -0.01734000       0.23898000       0.28098700
   128  C          0.51734000       0.73898000       0.21901300
   129  H          0.11524000       0.85322000       0.73022300
   130  H          0.38476000       0.35322000       0.76977700
   131  H          0.88476000       0.14678000       0.26977700
   132  H          0.61524000       0.64678000       0.23022300
   133  H          0.83970000       0.77840000       0.64046000
   134  H          0.66030000       0.27840000       0.85954000
   135  H          0.16030000       0.22160000       0.35954000
   136  H          0.33970000       0.72160000       0.14046000
