data_CACKOJ01
_symmetry_space_group_name_H-M    'P1'
_symmetry_Int_Tables_number       1
loop_
_symmetry_equiv_pos_site_id
_symmetry_equiv_pos_as_xyz
1 x,y,z
_cell_length_a                   7.67792
_cell_length_b                   23.75286
_cell_length_c                   13.84433
_cell_angle_alpha                90.0
_cell_angle_beta                 90.36999
_cell_angle_gamma                90.0
loop_
_atom_site_label
_atom_site_type_symbol
_atom_site_fract_x
_atom_site_fract_y
_atom_site_fract_z
     1  F          0.69674000       0.41817110       0.97656810
     2  F          0.30326000       0.91817110       0.52343190
     3  F          0.30326000       0.58182890       0.02343190
     4  F          0.69674000       0.08182890       0.47656810
     5  F          0.59624000       0.49743100       0.10582000
     6  F          0.40376000      -0.00256900       0.39418000
     7  F          0.40376000       0.50256900       0.89418000
     8  F          0.59624000       0.00256900       0.60582000
     9  F          0.58364000       0.47152110       0.29692000
    10  F          0.41636000       0.97152110       0.20308000
    11  F          0.41636000       0.52847890       0.70308000
    12  F          0.58364000       0.02847890       0.79692000
    13  F          0.68044000       0.36889110       0.35941170
    14  F          0.31956000       0.86889110       0.14058830
    15  F          0.31956000       0.63110890       0.64058830
    16  F          0.68044000       0.13110890       0.85941170
    17  F          0.78584000       0.31439100       0.03739170
    18  F          0.21416000       0.81439100       0.46260830
    19  F          0.21416000       0.68560900       0.96260830
    20  F          0.78584000       0.18560900       0.53739170
    21  N          0.64885000       0.24264140       0.23922000
    22  N          0.35115000       0.74264140       0.26078000
    23  N          0.35115000       0.75735860       0.76078000
    24  N          0.64885000       0.25735860       0.73922000
    25  H          0.60660000       0.24520000       0.29651900
    26  H          0.39340000       0.74520000       0.20348100
    27  H          0.39340000       0.75480000       0.70348100
    28  H          0.60660000       0.25480000       0.79651900
    29  N          0.97715000       0.27770170       0.39433000
    30  N          0.02285000       0.77770170       0.10567000
    31  N          0.02285000       0.72229830       0.60567000
    32  N          0.97715000       0.22229830       0.89433000
    33  C          0.69406000       0.40585180       0.07103000
    34  C          0.30594000       0.90585180       0.42897000
    35  C          0.30594000       0.59414820       0.92897000
    36  C          0.69406000       0.09414820       0.57103000
    37  C          0.64456000       0.44591180       0.13683000
    38  C          0.35544000       0.94591180       0.36317000
    39  C          0.35544000       0.55408820       0.86317000
    40  C          0.64456000       0.05408820       0.63683000
    41  C          0.63906000       0.43338170       0.23363000
    42  C          0.36094000       0.93338170       0.26637000
    43  C          0.36094000       0.56661830       0.76637000
    44  C          0.63906000       0.06661830       0.73363000
    45  C          0.69016000       0.38034180       0.26483000
    46  C          0.30984000       0.88034180       0.23517000
    47  C          0.30984000       0.61965820       0.73517000
    48  C          0.69016000       0.11965820       0.76483000
    49  C          0.74406000       0.33916170       0.20053000
    50  C          0.25594000       0.83916170       0.29947000
    51  C          0.25594000       0.66083830       0.79947000
    52  C          0.74406000       0.16083830       0.70053000
    53  C          0.74246000       0.35316170       0.10283000
    54  C          0.25754000       0.85316170       0.39717000
    55  C          0.25754000       0.64683830       0.89717000
    56  C          0.74246000       0.14683830       0.60283000
    57  C          0.79895000       0.28000170       0.23143000
    58  C          0.20105000       0.78000170       0.26857000
    59  C          0.20105000       0.71999830       0.76857000
    60  C          0.79895000       0.21999830       0.73143000
    61  H          0.88350000       0.26721600       0.18130000
    62  H          0.11650000       0.76721600       0.31870000
    63  H          0.11650000       0.73278400       0.81870000
    64  H          0.88350000       0.23278400       0.68130000
    65  C          0.67145000       0.18583170       0.21263000
    66  C          0.32855000       0.68583170       0.28737000
    67  C          0.32855000       0.81416830       0.78737000
    68  C          0.67145000       0.31416830       0.71263000
    69  C          0.73455000       0.17127180       0.12103000
    70  C          0.26545000       0.67127180       0.37897000
    71  C          0.26545000       0.82872820       0.87897000
    72  C          0.73455000       0.32872820       0.62103000
    73  H          0.77420000       0.19970000       0.07810000
    74  H          0.22580000       0.69970000       0.42190000
    75  H          0.22580000       0.80030000       0.92190000
    76  H          0.77420000       0.30030000       0.57810000
    77  C          0.73856000       0.11522180       0.09363000
    78  C          0.26144000       0.61522180       0.40637000
    79  C          0.26144000       0.88477820       0.90637000
    80  C          0.73856000       0.38477820       0.59363000
    81  H          0.78190000       0.10560000       0.03170000
    82  H          0.21810000       0.60560000       0.46830000
    83  H          0.21810000       0.89440000       0.96830000
    84  H          0.78190000       0.39440000       0.53170000
    85  C          0.68106000       0.07308180       0.15383000
    86  C          0.31894000       0.57308180       0.34617000
    87  C          0.31894000       0.92691820       0.84617000
    88  C          0.68106000       0.42691820       0.65383000
    89  H          0.68450000       0.03480000       0.13380000
    90  H          0.31550000       0.53480000       0.36620000
    91  H          0.31550000       0.96520000       0.86620000
    92  H          0.68450000       0.46520000       0.63380000
    93  C          0.61746000       0.08752180       0.24493000
    94  C          0.38254000       0.58752180       0.25507000
    95  C          0.38254000       0.91247820       0.75507000
    96  C          0.61746000       0.41247820       0.74493000
    97  H          0.57610000       0.05900000       0.28710000
    98  H          0.42390000       0.55900000       0.21290000
    99  H          0.42390000       0.94100000       0.71290000
   100  H          0.57610000       0.44100000       0.78710000
   101  C          0.61466000       0.14328170       0.27393000
   102  C          0.38534000       0.64328170       0.22607000
   103  C          0.38534000       0.85671830       0.72607000
   104  C          0.61466000       0.35671830       0.77393000
   105  H          0.57350000       0.15260000       0.33650000
   106  H          0.42650000       0.65260000       0.16350000
   107  H          0.42650000       0.84740000       0.66350000
   108  H          0.57350000       0.34740000       0.83650000
   109  C          0.90256000       0.28021170       0.32313000
   110  C          0.09744000       0.78021170       0.17687000
   111  C          0.09744000       0.71978830       0.67687000
   112  C          0.90256000       0.21978830       0.82313000
   113  F          0.08025000       0.08536120       0.31122000
   114  F          0.91975000       0.58536120       0.18878000
   115  F          0.91975000       0.91463880       0.68878000
   116  F          0.08025000       0.41463880       0.81122000
   117  F          0.07004000       0.00549110       0.17142000
   118  F          0.92996000       0.50549110       0.32858000
   119  F          0.92996000      -0.00549110       0.82858000
   120  F          0.07004000       0.49450890       0.67142000
   121  F          0.17885000       0.03084120      -0.00972000
   122  F          0.82115000       0.53084120       0.50972000
   123  F          0.82115000       0.96915880       0.00972000
   124  F          0.17885000       0.46915880       0.49028000
   125  F          0.28884000       0.13488120       0.94739810
   126  F          0.71116000       0.63488120       0.55260190
   127  F          0.71116000       0.86511880       0.05260190
   128  F          0.28884000       0.36511880       0.44739810
   129  F          0.19634000       0.19009110       0.27052170
   130  F          0.80366000       0.69009110       0.22947830
   131  F          0.80366000       0.80990890       0.72947830
   132  F          0.19634000       0.30990890       0.77052170
   133  N          0.14644000       0.26416140       0.08402000
   134  N          0.85356000       0.76416140       0.41598000
   135  N          0.85356000       0.73583860       0.91598000
   136  N          0.14644000       0.23583860       0.58402000
   137  H          0.10680000       0.25820000       0.02620000
   138  H          0.89320000       0.75820000       0.47380000
   139  H          0.89320000       0.74180000       0.97380000
   140  H          0.10680000       0.24180000       0.52620000
   141  N          0.48975000       0.24566170       0.93887000
   142  N          0.51025000       0.74566170       0.56113000
   143  N          0.51025000       0.75433830       0.06113000
   144  N          0.48975000       0.25433830       0.43887000
   145  C          0.13256000       0.09809190       0.22233000
   146  C          0.86744000       0.59809190       0.27767000
   147  C          0.86744000       0.90190810       0.77767000
   148  C          0.13256000       0.40190810       0.72233000
   149  C          0.12886000       0.05742180       0.15144000
   150  C          0.87114000       0.55742180       0.34856000
   151  C          0.87114000       0.94257820       0.84856000
   152  C          0.12886000       0.44257820       0.65144000
   153  C          0.18226000       0.07071180       0.05943000
   154  C          0.81774000       0.57071180       0.44057000
   155  C          0.81774000       0.92928820       0.94057000
   156  C          0.18226000       0.42928820       0.55943000
   157  C          0.23846000       0.12408190       0.03873000
   158  C          0.76154000       0.62408190       0.46127000
   159  C          0.76154000       0.87591810       0.96127000
   160  C          0.23846000       0.37591810       0.53873000
   161  C          0.24445000       0.16675170       0.10823000
   162  C          0.75555000       0.66675170       0.39177000
   163  C          0.75555000       0.83324830       0.89177000
   164  C          0.24445000       0.33324830       0.60823000
   165  C          0.19156000       0.15148180       0.20023000
   166  C          0.80844000       0.65148180       0.29977000
   167  C          0.80844000       0.84851820       0.79977000
   168  C          0.19156000       0.34851820       0.70023000
   169  C          0.29976000       0.22735170       0.09143000
   170  C          0.70024000       0.72735170       0.40857000
   171  C          0.70024000       0.77264830       0.90857000
   172  C          0.29976000       0.27264830       0.59143000
   173  H          0.36760000       0.24120000       0.14440000
   174  H          0.63240000       0.74120000       0.35560000
   175  H          0.63240000       0.75880000       0.85560000
   176  H          0.36760000       0.25880000       0.64440000
   177  C          0.17636000       0.32284180       0.10133000
   178  C          0.82364000       0.82284180       0.39867000
   179  C          0.82364000       0.67715820       0.89867000
   180  C          0.17636000       0.17715820       0.60133000
   181  C          0.21756000       0.34233180       0.19383000
   182  C          0.78244000       0.84233180       0.30617000
   183  C          0.78244000       0.65766820       0.80617000
   184  C          0.21756000       0.15766820       0.69383000
   185  H          0.24220000       0.31610000       0.24390000
   186  H          0.75780000       0.81610000       0.25610000
   187  H          0.75780000       0.68390000       0.75610000
   188  H          0.24220000       0.18390000       0.74390000
   189  C          0.22286000       0.39989190       0.21353000
   190  C          0.77714000       0.89989190       0.28647000
   191  C          0.77714000       0.60010810       0.78647000
   192  C          0.22286000       0.10010810       0.71353000
   193  H          0.24910000       0.41290000       0.27680000
   194  H          0.75090000       0.91290000       0.22320000
   195  H          0.75090000       0.58710000       0.72320000
   196  H          0.24910000       0.08710000       0.77680000
   197  C          0.18916000       0.43806190       0.13943000
   198  C          0.81084000       0.93806190       0.36057000
   199  C          0.81084000       0.56193810       0.86057000
   200  C          0.18916000       0.06193810       0.63943000
   201  H          0.19090000       0.47730000       0.15270000
   202  H          0.80910000       0.97730000       0.34730000
   203  H          0.80910000       0.52270000       0.84730000
   204  H          0.19090000       0.02270000       0.65270000
   205  C          0.15357000       0.41988190       0.04793000
   206  C          0.84643000       0.91988190       0.45207000
   207  C          0.84643000       0.58011810       0.95207000
   208  C          0.15357000       0.08011810       0.54793000
   209  H          0.13380000       0.44650000      -0.00210000
   210  H          0.86620000       0.94650000       0.50210000
   211  H          0.86620000       0.55350000       0.00210000
   212  H          0.13380000       0.05350000       0.49790000
   213  C          0.14606000       0.36220180       0.02733000
   214  C          0.85394000       0.86220180       0.47267000
   215  C          0.85394000       0.63779820       0.97267000
   216  C          0.14606000       0.13779820       0.52733000
   217  H          0.12050000       0.34970000       0.96360000
   218  H          0.87950000       0.84970000       0.53640000
   219  H          0.87950000       0.65030000       0.03640000
   220  H          0.12050000       0.15030000       0.46360000
   221  C          0.41066000       0.23486170       0.00613000
   222  C          0.58934000       0.73486170       0.49387000
   223  C          0.58934000       0.76513830      -0.00613000
   224  C          0.41066000       0.26513830       0.50613000
