data_CACKOJ03
_symmetry_space_group_name_H-M    'P1'
_symmetry_Int_Tables_number       1
loop_
_symmetry_equiv_pos_site_id
_symmetry_equiv_pos_as_xyz
1 x,y,z
_cell_length_a                   13.97481
_cell_length_b                   7.45185
_cell_length_c                   11.89948
_cell_angle_alpha                90.0
_cell_angle_beta                 104.4872
_cell_angle_gamma                90.0
loop_
_atom_site_label
_atom_site_type_symbol
_atom_site_fract_x
_atom_site_fract_y
_atom_site_fract_z
     1  F          0.98063300       0.15665130       0.84145200
     2  F          0.01936700       0.65665130       0.65854800
     3  F          0.01936700       0.84334870       0.15854800
     4  F          0.98063300       0.34334870       0.34145200
     5  F          0.90659300       0.82195140       0.79505200
     6  F          0.09340700       0.32195140       0.70494800
     7  F          0.09340700       0.17804860       0.20494800
     8  F          0.90659300       0.67804860       0.29505200
     9  F          0.01594800       0.53200140       0.88811200
    10  F          0.98405200       0.03200140       0.61188800
    11  F          0.98405200       0.46799860       0.11188800
    12  F          0.01594800       0.96799860       0.38811200
    13  F          0.19595700       0.57853130       0.03244800
    14  F          0.80404300       0.07853130       0.46755200
    15  F          0.80404300       0.42146870       0.96755200
    16  F          0.19595700       0.92146870       0.53244800
    17  F          0.16322700       0.20575130       0.97803200
    18  F          0.83677300       0.70575130       0.52196800
    19  F          0.83677300       0.79424870       0.02196800
    20  F          0.16322700       0.29424870       0.47803200
    21  N          0.36121110       0.82142000       0.04769130
    22  N          0.63878890       0.32142000       0.45230870
    23  N          0.63878890       0.17858000       0.95230870
    24  N          0.36121110       0.67858000       0.54769130
    25  H          0.34501600       0.79830000       0.97580000
    26  H          0.65498400       0.29830000       0.52420000
    27  H          0.65498400       0.20170000       0.02420000
    28  H          0.34501600       0.70170000       0.47580000
    29  N          0.27738120       0.81382000       0.29710130
    30  N          0.72261880       0.31382000       0.20289870
    31  N          0.72261880       0.18618000       0.70289870
    32  N          0.27738120       0.68618000       0.79710130
    33  C          0.03650120       0.01442000       0.88444870
    34  C          0.96349880       0.51442000       0.61555130
    35  C          0.96349880      -0.01442000       0.11555130
    36  C          0.03650120       0.48558000       0.38444870
    37  C         -0.00180120       0.84412000       0.86215860
    38  C          0.00180120       0.34412000       0.63784140
    39  C          0.00180120       0.15588000       0.13784140
    40  C         -0.00180120       0.65588000       0.36215860
    41  C          0.05314130       0.69762000       0.91080860
    42  C          0.94685870       0.19762000       0.58919140
    43  C          0.94685870       0.30238000       0.08919140
    44  C          0.05314130       0.80238000       0.41080860
    45  C          0.14594130       0.72322000       0.98300860
    46  C          0.85405870       0.22322000       0.51699140
    47  C          0.85405870       0.27678000       0.01699140
    48  C          0.14594130       0.77678000       0.48300860
    49  C          0.18679120       0.89352000       0.00717130
    50  C          0.81320880       0.39352000       0.49282870
    51  C          0.81320880       0.10648000      -0.00717130
    52  C          0.18679120       0.60648000       0.50717130
    53  C          0.13002120       0.03762000       0.95562860
    54  C          0.86997880       0.53762000       0.54437140
    55  C          0.86997880       0.96238000       0.04437140
    56  C          0.13002120       0.46238000       0.45562860
    57  C          0.28835130       0.91982000       0.08896140
    58  C          0.71164870       0.41982000       0.41103860
    59  C          0.71164870       0.08018000       0.91103860
    60  C          0.28835130       0.58018000       0.58896140
    61  H          0.30301400       0.04830000       0.09681600
    62  H          0.69698600       0.54830000       0.40318400
    63  H          0.69698600       0.95170000       0.90318400
    64  H          0.30301400       0.45170000       0.59681600
    65  C          0.46206120       0.83432000       0.09945140
    66  C          0.53793880       0.33432000       0.40054860
    67  C          0.53793880       0.16568000       0.90054860
    68  C          0.46206120       0.66568000       0.59945140
    69  C          0.49998130       0.92912000       0.20186150
    70  C          0.50001870       0.42912000       0.29813850
    71  C          0.50001870       0.07088000       0.79813850
    72  C          0.49998130       0.57088000       0.70186150
    73  H          0.45690000      -0.00500000       0.23680000
    74  H          0.54310000       0.49500000       0.26320000
    75  H          0.54310000       0.00500000       0.76320000
    76  H          0.45690000       0.50500000       0.73680000
    77  C          0.60060140       0.92702000       0.25253160
    78  C          0.39939860       0.42702000       0.24746840
    79  C          0.39939860       0.07298000       0.74746840
    80  C          0.60060140       0.57298000       0.75253160
    81  H          0.62600000      -0.00800000       0.32230000
    82  H          0.37400000       0.49200000       0.17770000
    83  H          0.37400000       0.00800000       0.67770000
    84  H          0.62600000       0.50800000       0.82230000
    85  C          0.66469140       0.83213000       0.20345170
    86  C          0.33530860       0.33213000       0.29654830
    87  C          0.33530860       0.16787000       0.79654830
    88  C          0.66469140       0.66787000       0.70345170
    89  H          0.73350000       0.82980000       0.23960000
    90  H          0.26650000       0.32980000       0.26040000
    91  H          0.26650000       0.17020000       0.76040000
    92  H          0.73350000       0.67020000       0.73960000
    93  C          0.62705140       0.73992000       0.10018170
    94  C          0.37294860       0.23992000       0.39981830
    95  C          0.37294860       0.26008000       0.89981830
    96  C          0.62705140       0.76008000       0.60018170
    97  H          0.67060000       0.67570000       0.06500000
    98  H          0.32940000       0.17570000       0.43500000
    99  H          0.32940000       0.32430000       0.93500000
   100  H          0.67060000       0.82430000       0.56500000
   101  C          0.52695130       0.74082000       0.04835150
   102  C          0.47304870       0.24082000       0.45164850
   103  C          0.47304870       0.25918000       0.95164850
   104  C          0.52695130       0.75918000       0.54835150
   105  H          0.50210000       0.67760000       0.97770000
   106  H          0.49790000       0.17760000       0.52230000
   107  H          0.49790000       0.32240000       0.02230000
   108  H          0.50210000       0.82240000       0.47770000
   109  C          0.28316130       0.85752000       0.20683150
   110  C          0.71683870       0.35752000       0.29316850
   111  C          0.71683870       0.14248000       0.79316850
   112  C          0.28316130       0.64248000       0.70683150
