data_CACKOJ
_symmetry_space_group_name_H-M    'P1'
_symmetry_Int_Tables_number       1
loop_
_symmetry_equiv_pos_site_id
_symmetry_equiv_pos_as_xyz
1 x,y,z
_cell_length_a                   7.62945
_cell_length_b                   12.69958
_cell_length_c                   25.823917
_cell_angle_alpha                90.0
_cell_angle_beta                 90.0
_cell_angle_gamma                90.0
loop_
_atom_site_label
_atom_site_type_symbol
_atom_site_fract_x
_atom_site_fract_y
_atom_site_fract_z
     1  F          0.31414170       0.93788900       0.88751500
     2  F          0.18585830       0.06211100       0.38751500
     3  F          0.81414170       0.56211100       0.11248500
     4  F          0.68585830       0.43788900       0.61248500
     5  F          0.55814190      -0.00337900       0.95791400
     6  F          0.94185810       0.00337900       0.45791400
     7  F          0.05814190       0.50337900       0.04208600
     8  F          0.44185810       0.49662100       0.54208600
     9  F          0.89480190       0.03030110       0.92793500
    10  F          0.60519810       0.96969890       0.42793500
    11  F          0.39480190       0.46969890       0.07206500
    12  F          0.10519810       0.53030110       0.57206500
    13  F         -0.01557840       0.00627110       0.82720500
    14  F          0.51557840      -0.00627110       0.32720500
    15  F          0.48442160       0.49372890       0.17279500
    16  F          0.01557840       0.50627110       0.67279500
    17  F          0.40243150       0.91459900       0.78694400
    18  F          0.09756850       0.08540100       0.28694400
    19  F          0.90243150       0.58540100       0.21305600
    20  F          0.59756850       0.41459900       0.71305600
    21  N          0.77322000       0.05246120       0.72619600
    22  N          0.72678000       0.94753880       0.22619600
    23  N          0.27322000       0.44753880       0.27380400
    24  N          0.22678000       0.55246120       0.77380400
    25  H          0.83330000       0.09531800       0.74399000
    26  H          0.66670000       0.90468200       0.24399000
    27  H          0.33330000       0.40468200       0.25601000
    28  H          0.16670000       0.59531800       0.75601000
    29  N          0.01682000       0.82157150       0.73659700
    30  N          0.48318000       0.17842850       0.23659700
    31  N          0.51682000       0.67842850       0.26340300
    32  N         -0.01682000       0.32157150       0.76340300
    33  C          0.47873000       0.95459150       0.87240800
    34  C          0.02127000       0.04540850       0.37240800
    35  C          0.97873000       0.54540850       0.12759200
    36  C          0.52127000       0.45459150       0.62759200
    37  C          0.60363000       0.98445150       0.90818700
    38  C          0.89637000       0.01554850       0.40818700
    39  C          0.10363000       0.51554850       0.09181300
    40  C          0.39637000       0.48445150       0.59181300
    41  C          0.77443000       0.00125160       0.89318800
    42  C          0.72557000      -0.00125160       0.39318800
    43  C          0.27443000       0.49874840       0.10681200
    44  C          0.22557000       0.50125160       0.60681200
    45  C          0.81853000       0.98812150       0.84175800
    46  C          0.68147000       0.01187850       0.34175800
    47  C          0.31853000       0.51187850       0.15824200
    48  C          0.18147000       0.48812150       0.65824200
    49  C          0.69702000       0.95856140       0.80458700
    50  C          0.80298000       0.04143860       0.30458700
    51  C          0.19702000       0.54143860       0.19541300
    52  C          0.30298000       0.45856140       0.69541300
    53  C          0.52652000       0.94226140       0.82115700
    54  C          0.97348000       0.05773860       0.32115700
    55  C          0.02652000       0.55773860       0.17884300
    56  C          0.47348000       0.44226140       0.67884300
    57  C          0.74702000       0.94895140       0.74802700
    58  C          0.75298000       0.05104860       0.24802700
    59  C          0.24702000       0.55104860       0.25197300
    60  C          0.25298000       0.44895140       0.75197300
    61  H          0.64580000       0.91600000       0.72950000
    62  H          0.85420000       0.08400000       0.22950000
    63  H          0.14580000       0.58400000       0.27050000
    64  H          0.35420000       0.41600000       0.77050000
    65  C          0.78422000       0.06881140       0.67238700
    66  C          0.71578000       0.93118860       0.17238700
    67  C          0.28422000       0.43118860       0.32761300
    68  C          0.21578000       0.56881140       0.82761300
    69  C          0.74543000      -0.00888840       0.63617700
    70  C          0.75457000       0.00888840       0.13617700
    71  C          0.24543000       0.50888840       0.36382300
    72  C          0.25457000       0.49111160       0.86382300
    73  H          0.71410000       0.92230000       0.64730000
    74  H          0.78590000       0.07770000       0.14730000
    75  H          0.21410000       0.57770000       0.35270000
    76  H          0.28590000       0.42230000       0.85270000
    77  C          0.75283000       0.01474170       0.58355800
    78  C          0.74717000       0.98525830       0.08355800
    79  C          0.25283000       0.48525830       0.41644200
    80  C          0.24717000       0.51474170       0.91644200
    81  H          0.72480000       0.96180000       0.55890000
    82  H          0.77520000       0.03820000       0.05890000
    83  H          0.22480000       0.53820000       0.44110000
    84  H          0.27520000       0.46180000       0.94110000
    85  C          0.80014000       0.11374180       0.56667800
    86  C          0.69986000       0.88625820       0.06667800
    87  C          0.30014000       0.38625820       0.43332200
    88  C          0.19986000       0.61374180       0.93332200
    89  H          0.80550000       0.12900000       0.53070000
    90  H          0.69450000       0.87100000       0.03070000
    91  H          0.30550000       0.37100000       0.46930000
    92  H          0.19450000       0.62900000       0.96930000
    93  C          0.83993000       0.19094180       0.60303800
    94  C          0.66007000       0.80905820       0.10303800
    95  C          0.33993000       0.30905820       0.39696200
    96  C          0.16007000       0.69094180       0.89696200
    97  H          0.87330000       0.25930000       0.59180000
    98  H          0.62670000       0.74070000       0.09180000
    99  H          0.37330000       0.24070000       0.40820000
   100  H          0.12670000       0.75930000       0.90820000
   101  C          0.83133000       0.16891150       0.65537800
   102  C          0.66867000       0.83108850       0.15537800
   103  C          0.33133000       0.33108850       0.34462200
   104  C          0.16867000       0.66891150       0.84462200
   105  H          0.85760000       0.22240000       0.67990000
   106  H          0.64240000       0.77760000       0.17990000
   107  H          0.35760000       0.27760000       0.32010000
   108  H          0.14240000       0.72240000       0.82010000
   109  C          0.90093000       0.87763150       0.74177800
   110  C          0.59907000       0.12236850       0.24177800
   111  C          0.40093000       0.62236850       0.25822200
   112  C          0.09907000       0.37763150       0.75822200
   113  F          0.69732000       0.69175100       0.83653500
   114  F          0.80268000       0.30824900       0.33653500
   115  F          0.19732000       0.80824900       0.16346500
   116  F          0.30268000       0.19175100       0.66346500
   117  F          0.59672000       0.76084900       0.93196500
   118  F          0.90328000       0.23915100       0.43196500
   119  F          0.09672000       0.73915100       0.06803500
   120  F          0.40328000       0.26084900       0.56803500
   121  F          0.60152000       0.62884900       0.01389500
   122  F          0.89848000       0.37115100       0.51389500
   123  F          0.10152000       0.87115100       0.98610500
   124  F          0.39848000       0.12884900       0.48610500
   125  F          0.70979160       0.42788800       0.00196400
   126  F          0.79020840       0.57211200       0.50196400
   127  F          0.20979160       0.07211200      -0.00196400
   128  F          0.29020840       0.92788800       0.49803600
   129  F          0.80382170       0.49132900       0.82391400
   130  F          0.69617830       0.50867100       0.32391400
   131  F          0.30382170       0.00867100       0.17608600
   132  F          0.19617830      -0.00867100       0.67608600
   133  N          0.68462000       0.26241120       0.91436600
   134  N          0.81538000       0.73758880       0.41436600
   135  N          0.18462000       0.23758880       0.08563400
   136  N          0.31538000       0.76241120       0.58563400
   137  H          0.64230000       0.25841600       0.94749000
   138  H          0.85770000       0.74158400       0.44749000
   139  H          0.14230000       0.24158400       0.05251000
   140  H          0.35770000       0.75841600       0.55251000
   141  N          0.06602000       0.29128130       0.97382600
   142  N          0.43398000       0.70871870       0.47382600
   143  N          0.56602000       0.20871870       0.02617400
   144  N          0.93398000       0.79128130       0.52617400
   145  C          0.70103000       0.62628150       0.87755700
   146  C          0.79897000       0.37371850       0.37755700
   147  C          0.20103000       0.87371850       0.12244300
   148  C          0.29897000       0.12628150       0.62244300
   149  C          0.65073000       0.66143150       0.92540800
   150  C          0.84927000       0.33856850       0.42540800
   151  C          0.15073000       0.83856850       0.07459200
   152  C          0.34927000       0.16143150       0.57459200
   153  C          0.65433000       0.59432150       0.96756700
   154  C          0.84567000       0.40567850       0.46756700
   155  C          0.15433000       0.90567850       0.03243300
   156  C          0.34567000       0.09432150       0.53243300
   157  C          0.70982000       0.49233140       0.96065700
   158  C          0.79018000       0.50766860       0.46065700
   159  C          0.20982000       0.00766860       0.03934300
   160  C          0.29018000      -0.00766860       0.53934300
   161  C          0.76382000       0.45420130       0.91293700
   162  C          0.73618000       0.54579870       0.41293700
   163  C          0.26382000       0.04579870       0.08706300
   164  C          0.23618000       0.95420130       0.58706300
   165  C          0.75603000       0.52350140       0.87159700
   166  C          0.74397000       0.47649860       0.37159700
   167  C          0.25603000       0.97649860       0.12840300
   168  C          0.24397000       0.02350140       0.62840300
   169  C          0.82172000       0.33965130       0.90643700
   170  C          0.67828000       0.66034870       0.40643700
   171  C          0.32172000       0.16034870       0.09356300
   172  C          0.17828000       0.83965130       0.59356300
   173  H          0.86920000       0.33060000       0.87060000
   174  H          0.63080000       0.66940000       0.37060000
   175  H          0.36920000       0.16940000       0.12940000
   176  H          0.13080000       0.83060000       0.62940000
   177  C          0.55722000       0.24269130       0.87645700
   178  C          0.94278000       0.75730870       0.37645700
   179  C          0.05722000       0.25730870       0.12354300
   180  C          0.44278000       0.74269130       0.62354300
   181  C          0.39043000       0.21127140       0.89298800
   182  C          0.10957000       0.78872860       0.39298800
   183  C          0.89043000       0.28872860       0.10701200
   184  C          0.60957000       0.71127140       0.60701200
   185  H          0.36220000       0.21260000       0.92880000
   186  H          0.13780000       0.78740000       0.42880000
   187  H          0.86220000       0.28740000       0.07120000
   188  H          0.63780000       0.71260000       0.57120000
   189  C          0.26663000       0.17845140       0.85748800
   190  C          0.23337000       0.82154860       0.35748800
   191  C          0.76663000       0.32154860       0.14251200
   192  C          0.73337000       0.67845140       0.64251200
   193  H          0.15400000       0.15700000       0.86910000
   194  H          0.34600000       0.84300000       0.36910000
   195  H          0.65400000       0.34300000       0.13090000
   196  H          0.84600000       0.65700000       0.63090000
   197  C          0.30493000       0.17648150       0.80488800
   198  C          0.19507000       0.82351850       0.30488800
   199  C          0.80493000       0.32351850       0.19511200
   200  C          0.69507000       0.67648150       0.69511200
   201  H          0.22080000       0.15150000       0.78070000
   202  H          0.27920000       0.84850000       0.28070000
   203  H          0.72080000       0.34850000       0.21930000
   204  H          0.77920000       0.65150000       0.71930000
   205  C          0.46743000       0.21146140       0.78832800
   206  C          0.03257000       0.78853860       0.28832800
   207  C          0.96743000       0.28853860       0.21167200
   208  C          0.53257000       0.71146140       0.71167200
   209  H          0.49320000       0.21230000       0.75230000
   210  H          0.00680000       0.78770000       0.25230000
   211  H         -0.00680000       0.28770000       0.24770000
   212  H          0.50680000       0.71230000       0.74770000
   213  C          0.59323000       0.24525130       0.82339700
   214  C          0.90677000       0.75474870       0.32339700
   215  C          0.09323000       0.25474870       0.17660300
   216  C          0.40677000       0.74525130       0.67660300
   217  H          0.70350000       0.27000000       0.81140000
   218  H          0.79650000       0.73000000       0.31140000
   219  H          0.20350000       0.23000000       0.18860000
   220  H          0.29650000       0.77000000       0.68860000
   221  C          0.96242000       0.31407130       0.94374700
   222  C          0.53758000       0.68592870       0.44374700
   223  C          0.46242000       0.18592870       0.05625300
   224  C          0.03758000       0.81407130       0.55625300
