data_CADKUP02
_symmetry_space_group_name_H-M    'P1'
_symmetry_Int_Tables_number       1
loop_
_symmetry_equiv_pos_site_id
_symmetry_equiv_pos_as_xyz
1 x,y,z
_cell_length_a                   12.78661
_cell_length_b                   12.81731
_cell_length_c                   16.304213
_cell_angle_alpha                90.0
_cell_angle_beta                 90.0
_cell_angle_gamma                90.0
loop_
_atom_site_label
_atom_site_type_symbol
_atom_site_fract_x
_atom_site_fract_y
_atom_site_fract_z
     1  Br         0.07049300       0.49163200       0.49578200
     2  Br         0.42950700       0.50836800      -0.00421800
     3  Br         0.92950700      -0.00836800       0.00421800
     4  Br         0.57049300       0.00836800       0.50421800
     5  Br         0.24464300       0.29879300       0.74877200
     6  Br         0.25535700       0.70120700       0.24877200
     7  Br         0.75535700       0.79879300       0.75122800
     8  Br         0.74464300       0.20120700       0.25122800
     9  O          0.31552000       0.69446190       0.77339140
    10  O          0.18448000       0.30553810       0.27339140
    11  O          0.68448000       0.19446190       0.72660860
    12  O          0.81552000       0.80553810       0.22660860
    13  H          0.25530000       0.73540000       0.74820000
    14  H          0.24470000       0.26460000       0.24820000
    15  H          0.74470000       0.23540000       0.75180000
    16  H          0.75530000       0.76460000       0.25180000
    17  O          0.31462000       0.61352000       0.65173140
    18  O          0.18538000       0.38648000       0.15173140
    19  O          0.68538000       0.11352000       0.84826860
    20  O          0.81462000       0.88648000       0.34826860
    21  N          0.43562000       0.45562000       0.70251160
    22  N          0.06438000       0.54438000       0.20251160
    23  N          0.56438000       0.95562000       0.79748840
    24  N          0.93562000       0.04438000       0.29748840
    25  H          0.38568700       0.40540800       0.70748800
    26  H          0.11431300       0.59459200       0.20748800
    27  H          0.61431300       0.90540800       0.79251200
    28  H          0.88568700       0.09459200       0.29251200
    29  H          0.43520800       0.47958000       0.64996600
    30  H          0.06479200       0.52042000       0.14996600
    31  H          0.56479200       0.97958000       0.85003400
    32  H          0.93520800       0.02042000       0.35003400
    33  C          0.34222000       0.62223000       0.72290190
    34  C          0.15778000       0.37777000       0.22290190
    35  C          0.65778000       0.12223000       0.77709810
    36  C          0.84222000       0.87777000       0.27709810
    37  C          0.41482000       0.54302000       0.76114170
    38  C          0.08518000       0.45698000       0.26114170
    39  C          0.58518000       0.04302000       0.73885830
    40  C          0.91482000       0.95698000       0.23885830
    41  H          0.38055400       0.51380800       0.81127100
    42  H          0.11944600       0.48619200       0.31127100
    43  H          0.61944600       0.01380800       0.68872900
    44  H          0.88055400       0.98619200       0.18872900
    45  C          0.52313000       0.58193000       0.78422000
    46  C          0.97687000       0.41807000       0.28422000
    47  C          0.47687000       0.08193000       0.71578000
    48  C          0.02313000       0.91807000       0.21578000
    49  H          0.54545000       0.63941700       0.74763900
    50  H          0.95455000       0.36058300       0.24763900
    51  H          0.45455000       0.13941700       0.75236100
    52  H          0.04545000       0.86058300       0.25236100
    53  H          0.52467300       0.60674200       0.84169500
    54  H          0.97532700       0.39325800       0.34169500
    55  H          0.47532700       0.10674200       0.65830500
    56  H          0.02467300       0.89325800       0.15830500
    57  C          0.59194000       0.48795000       0.77345000
    58  C          0.90806000       0.51205000       0.27345000
    59  C          0.40806000       0.98795000       0.72655000
    60  C          0.09194000       0.01205000       0.22655000
    61  H          0.65847600       0.50872400       0.74711100
    62  H          0.84152400       0.49127600       0.24711100
    63  H          0.34152400       0.00872400       0.75288900
    64  H          0.15847600      -0.00872400       0.25288900
    65  H          0.60816400       0.45711200       0.82756800
    66  H          0.89183600       0.54288800       0.32756800
    67  H          0.39183600       0.95711200       0.67243200
    68  H          0.10816400       0.04288800       0.17243200
    69  C          0.54014000       0.41275000       0.72373000
    70  C          0.95986000       0.58725000       0.22373000
    71  C          0.45986000       0.91275000       0.77627000
    72  C          0.04014000       0.08725000       0.27627000
    73  H          0.53244800       0.34619700       0.75391100
    74  H          0.96755200       0.65380300       0.25391100
    75  H          0.46755200       0.84619700       0.74608900
    76  H          0.03244800       0.15380300       0.24608900
    77  H          0.58094800       0.39936200       0.67316300
    78  H          0.91905200       0.60063800       0.17316300
    79  H          0.41905200       0.89936200       0.82683700
    80  H          0.08094800       0.10063800       0.32683700
    81  O          0.18592000       0.81712000       0.71936150
    82  O          0.31408000       0.18288000       0.21936150
    83  O          0.81408000       0.31712000       0.78063850
    84  O          0.68592000       0.68288000       0.28063850
    85  O          0.12112000       0.82582000       0.84600150
    86  O          0.37888000       0.17418000       0.34600150
    87  O          0.87888000       0.32582000       0.65399850
    88  O          0.62112000       0.67418000       0.15399850
    89  N          0.95748000       0.94692000       0.79935160
    90  N          0.54252000       0.05308000       0.29935160
    91  N          0.04252000       0.44692000       0.70064840
    92  N          0.45748000       0.55308000       0.20064840
    93  H          0.90559600       0.90002600       0.78932600
    94  H          0.59440400       0.09997400       0.28932600
    95  H          0.09440400       0.40002600       0.71067400
    96  H          0.40559600       0.59997400       0.21067400
    97  H          0.97936400       0.93890500       0.85207800
    98  H          0.52063600       0.06109500       0.35207800
    99  H          0.02063600       0.43890500       0.64792200
   100  H          0.47936400       0.56109500       0.14792200
   101  C          0.12173000       0.85042000       0.77352190
   102  C          0.37827000       0.14958000       0.27352190
   103  C          0.87827000       0.35042000       0.72647810
   104  C          0.62173000       0.64958000       0.22647810
   105  C          0.04632000       0.93073000       0.74142000
   106  C          0.45368000       0.06927000       0.24142000
   107  C          0.95368000       0.43073000       0.75858000
   108  C          0.54632000       0.56927000       0.25858000
   109  H          0.01871200       0.90794600       0.68682100
   110  H          0.48128800       0.09205400       0.18682100
   111  H          0.98128800       0.40794600       0.81317900
   112  H          0.51871200       0.59205400       0.31317900
   113  C          0.09503000       0.03893000       0.73373000
   114  C          0.40497000       0.96107000       0.23373000
   115  C          0.90497000       0.53893000       0.76627000
   116  C          0.59503000       0.46107000       0.26627000
   117  H          0.15873100       0.04367700       0.76801600
   118  H          0.34126900       0.95632300       0.26801600
   119  H          0.84126900       0.54367700       0.73198400
   120  H          0.65873100       0.45632300       0.23198400
   121  H          0.11458100       0.05293600       0.67599800
   122  H          0.38541900       0.94706400       0.17599800
   123  H          0.88541900       0.55293600       0.82400200
   124  H          0.61458100       0.44706400       0.32400200
   125  C          0.01493000       0.11603000       0.76213000
   126  C          0.48507000       0.88397000       0.26213000
   127  C          0.98507000       0.61603000       0.73787000
   128  C          0.51493000       0.38397000       0.23787000
   129  H         -0.00169600       0.16586700       0.71767200
   130  H          0.50169600       0.83413300       0.21767200
   131  H          0.00169600       0.66586700       0.78232800
   132  H          0.49830400       0.33413300       0.28232800
   133  H          0.04158200       0.15559800       0.80987000
   134  H          0.45841800       0.84440200       0.30987000
   135  H          0.95841800       0.65559800       0.69013000
   136  H          0.54158200       0.34440200       0.19013000
   137  C          0.91897000       0.05533000       0.78572000
   138  C          0.58103000       0.94467000       0.28572000
   139  C          0.08103000       0.55533000       0.71428000
   140  C          0.41897000       0.44467000       0.21428000
   141  H          0.88727000       0.08393600       0.83625600
   142  H          0.61273000       0.91606400       0.33625600
   143  H          0.11273000       0.58393600       0.66374400
   144  H          0.38727000       0.41606400       0.16374400
   145  H          0.86639700       0.05711100       0.74113100
   146  H          0.63360300       0.94288900       0.24113100
   147  H          0.13360300       0.55711100       0.75886900
   148  H          0.36639700       0.44288900       0.25886900
   149  O          0.58592000       0.57042000       0.46977150
   150  O          0.91408000       0.42958000       0.96977150
   151  O          0.41408000       0.07042000       0.03022850
   152  O          0.08592000       0.92958000       0.53022850
   153  H          0.53040000       0.51840000       0.49430000
   154  H          0.96960000       0.48160000      -0.00570000
   155  H          0.46960000       0.01840000       0.00570000
   156  H          0.03040000       0.98160000       0.50570000
   157  O          0.58733000       0.64863000       0.59136170
   158  O          0.91267000       0.35137000       0.09136170
   159  O          0.41267000       0.14863000       0.90863830
   160  O          0.08733000       0.85137000       0.40863830
   161  N          0.71882000       0.80092000       0.54322170
   162  N          0.78118000       0.19908000       0.04322170
   163  N          0.28118000       0.30092000       0.95677830
   164  N          0.21882000       0.69908000       0.45677830
   165  H          0.68140300       0.85858900       0.52919900
   166  H          0.81859700       0.14141100       0.02919900
   167  H          0.31859700       0.35858900       0.97080100
   168  H          0.18140300       0.64141100       0.47080100
   169  H          0.70100800       0.78198100       0.59519000
   170  H          0.79899200       0.21801900       0.09519000
   171  H          0.29899200       0.28198100       0.90481000
   172  H          0.20100800       0.71801900       0.40481000
   173  C          0.61663000       0.64033000       0.52102000
   174  C          0.88337000       0.35967000       0.02102000
   175  C          0.38337000       0.14033000       0.97898000
   176  C          0.11663000       0.85967000       0.47898000
   177  C          0.69663000       0.71313000       0.48432000
   178  C          0.80337000       0.28687000       0.98432000
   179  C          0.30337000       0.21313000       0.01568000
   180  C          0.19663000       0.78687000       0.51568000
   181  H          0.66947000       0.74218900       0.43153700
   182  H          0.83053000       0.25781100       0.93153700
   183  H          0.33053000       0.24218900       0.06846300
   184  H          0.16947000       0.75781100       0.56846300
   185  C          0.80203000       0.66253000       0.47004000
   186  C          0.69797000       0.33747000       0.97004000
   187  C          0.19797000       0.16253000       0.02996000
   188  C          0.30203000       0.83747000       0.52996000
   189  H          0.80001300       0.58827400       0.48672300
   190  H          0.69998700       0.41172600       0.98672300
   191  H          0.19998700       0.08827400       0.01327700
   192  H          0.30001300       0.91172600       0.51327700
   193  H          0.82096400       0.66619400       0.41123000
   194  H          0.67903600       0.33380600       0.91123000
   195  H          0.17903600       0.16619400       0.08877000
   196  H          0.32096400       0.83380600       0.58877000
   197  C          0.87744000       0.71925000       0.51914000
   198  C          0.62256000       0.28075000       0.01914000
   199  C          0.12256000       0.21925000       0.98086000
   200  C          0.37744000       0.78075000       0.48086000
   201  H          0.94376200       0.72723400       0.48844700
   202  H          0.55623800       0.27276600       0.98844700
   203  H          0.05623800       0.22723400       0.01155300
   204  H          0.44376200       0.77276600       0.51155300
   205  H          0.89207400       0.68081800       0.57049100
   206  H          0.60792600       0.31918200       0.07049100
   207  H          0.10792600       0.18081800       0.92950900
   208  H          0.39207400       0.81918200       0.42950900
   209  C          0.83283000       0.82253000       0.53792000
   210  C          0.66717000       0.17747000       0.03792000
   211  C          0.16717000       0.32253000       0.96208000
   212  C          0.33283000       0.67747000       0.46208000
   213  H          0.84832500       0.87327800       0.49379800
   214  H          0.65167500       0.12672200      -0.00620200
   215  H          0.15167500       0.37327800       0.00620200
   216  H          0.34832500       0.62672200       0.50620200
   217  H          0.86010900       0.84978700       0.59055500
   218  H          0.63989100       0.15021300       0.09055500
   219  H          0.13989100       0.34978700       0.90944500
   220  H          0.36010900       0.65021300       0.40944500
   221  O          0.46129190       0.44452000       0.52958140
   222  O          0.03870810       0.55548000       0.02958140
   223  O          0.53870810       0.94452000       0.97041860
   224  O          0.96129190       0.05548000       0.47041860
   225  O          0.38582000       0.43672000       0.40600140
   226  O          0.11418000       0.56328000       0.90600140
   227  O          0.61418000       0.93672000       0.09399860
   228  O          0.88582000       0.06328000       0.59399860
   229  N          0.23712000       0.30312000       0.45209160
   230  N          0.26288000       0.69688000       0.95209160
   231  N          0.76288000       0.80312000       0.04790840
   232  N          0.73712000       0.19688000       0.54790840
   233  H          0.26827700       0.29527700       0.40231900
   234  H          0.23172300       0.70472300       0.90231900
   235  H          0.73172300       0.79527700       0.09768100
   236  H          0.76827700       0.20472300       0.59768100
   237  H          0.18556300       0.35180000       0.44746900
   238  H          0.31443700       0.64820000       0.94746900
   239  H          0.81443700       0.85180000       0.05253100
   240  H          0.68556300       0.14820000       0.55253100
   241  C          0.39253000       0.41172000       0.47833190
   242  C          0.10747000       0.58828000       0.97833190
   243  C          0.60747000       0.91172000       0.02166810
   244  C          0.89253000       0.08828000       0.52166810
   245  C          0.31502000       0.33582000       0.51469180
   246  C          0.18498000       0.66418000       0.01469180
   247  C          0.68498000       0.83582000       0.98530820
   248  C          0.81502000       0.16418000       0.48530820
   249  H          0.27796400       0.36986300       0.56159200
   250  H          0.22203600       0.63013700       0.06159200
   251  H          0.72203600       0.86986300       0.93840800
   252  H          0.77796400       0.13013700       0.43840800
   253  C          0.36153000       0.23233000       0.54332000
   254  C          0.13847000       0.76767000       0.04332000
   255  C          0.63847000       0.73233000       0.95668000
   256  C          0.86153000       0.26767000       0.45668000
   257  H          0.42013300       0.21073400       0.50750000
   258  H          0.07986700       0.78926600       0.00750000
   259  H          0.57986700       0.71073400      -0.00750000
   260  H          0.92013300       0.28926600       0.49250000
   261  H          0.38704700       0.23758100       0.60048500
   262  H          0.11295300       0.76241900       0.10048500
   263  H          0.61295300       0.73758100       0.89951500
   264  H          0.88704700       0.26241900       0.39951500
   265  C          0.27174000       0.15593000       0.53733000
   266  C          0.22826000       0.84407000       0.03733000
   267  C          0.72826000       0.65593000       0.96267000
   268  C          0.77174000       0.34407000       0.46267000
   269  H          0.29665300       0.08808900       0.51574400
   270  H          0.20334700       0.91191100       0.01574400
   271  H          0.70334700       0.58808900       0.98425600
   272  H          0.79665300       0.41191100       0.48425600
   273  H          0.24039600       0.14415400       0.59208700
   274  H          0.25960400       0.85584600       0.09208700
   275  H          0.75960400       0.64415400       0.90791300
   276  H          0.74039600       0.35584600       0.40791300
   277  C          0.19303000       0.20203000       0.48073000
   278  C          0.30697000       0.79797000       0.98073000
   279  C          0.80697000       0.70203000       0.01927000
   280  C          0.69303000       0.29797000       0.51927000
   281  H          0.12589200       0.21334700       0.50967500
   282  H          0.37410800       0.78665300       0.00967500
   283  H          0.87410800       0.71334700       0.99032500
   284  H          0.62589200       0.28665300       0.49032500
   285  H          0.18042500       0.15488000       0.43359800
   286  H          0.31957500       0.84512000       0.93359800
   287  H          0.81957500       0.65488000       0.06640200
   288  H          0.68042500       0.34512000       0.56640200
