data_CADKUP03
_symmetry_space_group_name_H-M    'P1'
_symmetry_Int_Tables_number       1
loop_
_symmetry_equiv_pos_site_id
_symmetry_equiv_pos_as_xyz
1 x,y,z
_cell_length_a                   12.748711
_cell_length_b                   12.758111
_cell_length_c                   16.066214
_cell_angle_alpha                90.0
_cell_angle_beta                 90.0
_cell_angle_gamma                90.0
loop_
_atom_site_label
_atom_site_type_symbol
_atom_site_fract_x
_atom_site_fract_y
_atom_site_fract_z
     1  Br         0.07812200       0.48655200       0.49463200
     2  Br         0.42187800       0.51344800      -0.00536800
     3  Br         0.92187800       0.98655200       0.00536800
     4  Br         0.57812200       0.01344800       0.50536800
     5  Br         0.23736200       0.28703200       0.74952200
     6  Br         0.26263800       0.71296800       0.24952200
     7  Br         0.76263800       0.78703200       0.75047800
     8  Br         0.73736200       0.21296800       0.25047800
     9  O          0.31939140       0.68488140       0.77316110
    10  O          0.18060860       0.31511860       0.27316110
    11  O          0.68060860       0.18488140       0.72683890
    12  O          0.81939140       0.81511860       0.22683890
    13  H          0.27130000       0.73630000       0.74520000
    14  H          0.22870000       0.26370000       0.24520000
    15  H          0.72870000       0.23630000       0.75480000
    16  H          0.77130000       0.76370000       0.25480000
    17  O          0.31590130       0.60129140       0.65022100
    18  O          0.18409870       0.39870860       0.15022100
    19  O          0.68409870       0.10129140       0.84977900
    20  O          0.81590130       0.89870860       0.34977900
    21  N          0.43240170       0.43915160       0.70520110
    22  N          0.06759830       0.56084840       0.20520110
    23  N          0.56759830       0.93915160       0.79479890
    24  N          0.93240170       0.06084840       0.29479890
    25  H          0.37783100       0.39368000       0.71064200
    26  H          0.12216900       0.60632000       0.21064200
    27  H          0.62216900       0.89368000       0.78935800
    28  H          0.87783100       0.10632000       0.28935800
    29  H          0.43657400       0.45997500       0.65112800
    30  H          0.06342600       0.54002500       0.15112800
    31  H          0.56342600       0.95997500       0.84887200
    32  H          0.93657400       0.04002500       0.34887200
    33  C          0.34507180       0.61048190       0.72194150
    34  C          0.15492820       0.38951810       0.22194150
    35  C          0.65492820       0.11048190       0.77805850
    36  C          0.84507180       0.88951810       0.27805850
    37  C          0.41861190       0.53119170       0.76128120
    38  C          0.08138810       0.46880830       0.26128120
    39  C          0.58138810       0.03119170       0.73871880
    40  C          0.91861190       0.96880830       0.23871880
    41  H          0.38772600       0.50681400       0.81512200
    42  H          0.11227400       0.49318600       0.31512200
    43  H          0.61227400       0.00681400       0.68487800
    44  H          0.88772600      -0.00681400       0.18487800
    45  C          0.53142000       0.57102000       0.77727160
    46  C          0.96858000       0.42898000       0.27727160
    47  C          0.46858000       0.07102000       0.72272840
    48  C          0.03142000       0.92898000       0.22272840
    49  H          0.54442100       0.63718300       0.74682500
    50  H          0.95557900       0.36281700       0.24682500
    51  H          0.45557900       0.13718300       0.75317500
    52  H          0.04442100       0.86281700       0.25317500
    53  H          0.54307400       0.58325600       0.83741200
    54  H          0.95692600       0.41674400       0.33741200
    55  H          0.45692600       0.08325600       0.66258800
    56  H          0.04307400       0.91674400       0.16258800
    57  C          0.60407180       0.48302000       0.74492000
    58  C          0.89592820       0.51698000       0.24492000
    59  C          0.39592820       0.98302000       0.75508000
    60  C          0.10407180       0.01698000       0.25508000
    61  H          0.63757100       0.50373600       0.69183600
    62  H          0.86242900       0.49626400       0.19183600
    63  H          0.36242900       0.00373600       0.80816400
    64  H          0.13757100      -0.00373600       0.30816400
    65  H          0.65953900       0.46688700       0.78611000
    66  H          0.84046100       0.53311300       0.28611000
    67  H          0.34046100       0.96688700       0.71389000
    68  H          0.15953900       0.03311300       0.21389000
    69  C          0.53242000       0.38932000       0.73234170
    70  C          0.96758000       0.61068000       0.23234170
    71  C          0.46758000       0.88932000       0.76765830
    72  C          0.03242000       0.11068000       0.26765830
    73  H          0.56021100       0.34161000       0.68900400
    74  H          0.93978900       0.65839000       0.18900400
    75  H          0.43978900       0.84161000       0.81099600
    76  H          0.06021100       0.15839000       0.31099600
    77  H          0.52294500       0.34963200       0.78477400
    78  H          0.97705500       0.65036800       0.28477400
    79  H          0.47705500       0.84963200       0.71522600
    80  H          0.02294500       0.15036800       0.21522600
    81  O          0.18667150       0.80636150       0.72002110
    82  O          0.31332850       0.19363850       0.22002110
    83  O          0.81332850       0.30636150       0.77997890
    84  O          0.68667150       0.69363850       0.27997890
    85  O          0.12399140       0.81984140       0.84983100
    86  O          0.37600860       0.18015860       0.34983100
    87  O          0.87600860       0.31984140       0.65016900
    88  O          0.62399140       0.68015860       0.15016900
    89  N          0.95939840       0.93939180       0.80100120
    90  N          0.54060160       0.06060820       0.30100120
    91  N          0.04060160       0.43939180       0.69899880
    92  N          0.45939840       0.56060820       0.19899880
    93  H          0.98185200       0.93585600       0.85469400
    94  H          0.51814800       0.06414400       0.35469400
    95  H          0.01814800       0.43585600       0.64530600
    96  H          0.48185200       0.56414400       0.14530600
    97  H          0.90989900       0.88904500       0.79278900
    98  H          0.59010100       0.11095500       0.29278900
    99  H          0.09010100       0.38904500       0.70721100
   100  H          0.40989900       0.61095500       0.20721100
   101  C          0.12422000       0.84213190       0.77507150
   102  C          0.37578000       0.15786810       0.27507150
   103  C          0.87578000       0.34213190       0.72492850
   104  C          0.62422000       0.65786810       0.22492850
   105  C          0.04844180       0.92482000       0.74278160
   106  C          0.45155820       0.07518000       0.24278160
   107  C          0.95155820       0.42482000       0.75721840
   108  C          0.54844180       0.57518000       0.25721840
   109  H          0.02165500       0.90406400       0.68664900
   110  H          0.47834500       0.09593600       0.18664900
   111  H          0.97834500       0.40406400       0.81335100
   112  H          0.52165500       0.59593600       0.31335100
   113  C          0.09852000       0.03382000       0.73832000
   114  C          0.40148000       0.96618000       0.23832000
   115  C          0.90148000       0.53382000       0.76168000
   116  C          0.59852000       0.46618000       0.26168000
   117  H          0.12862400       0.04630200       0.68240500
   118  H          0.37137600       0.95369800       0.18240500
   119  H          0.87137600       0.54630200       0.81759500
   120  H          0.62862400       0.45369800       0.31759500
   121  H          0.15512000       0.04046600       0.78020100
   122  H          0.34488000       0.95953400       0.28020100
   123  H          0.84488000       0.54046600       0.71979900
   124  H          0.65512000       0.45953400       0.21979900
   125  C          0.01022000       0.11212000       0.75636190
   126  C          0.48978000       0.88788000       0.25636190
   127  C         -0.01022000       0.61212000       0.74363810
   128  C          0.51022000       0.38788000       0.24363810
   129  H          0.03073400       0.16055000       0.80165100
   130  H          0.46926600       0.83945000       0.30165100
   131  H          0.96926600       0.66055000       0.69834900
   132  H          0.53073400       0.33945000       0.19834900
   133  H         -0.00622500       0.15380500       0.70604000
   134  H          0.50622500       0.84619500       0.20604000
   135  H          0.00622500       0.65380500       0.79396000
   136  H          0.49377500       0.34619500       0.29396000
   137  C          0.91518000       0.04622000       0.78240150
   138  C          0.58482000       0.95378000       0.28240150
   139  C          0.08482000       0.54622000       0.71759850
   140  C          0.41518000       0.45378000       0.21759850
   141  H          0.88116100       0.07629800       0.83233000
   142  H          0.61883900       0.92370200       0.33233000
   143  H          0.11883900       0.57629800       0.66767000
   144  H          0.38116100       0.42370200       0.16767000
   145  H          0.86310200       0.04245300       0.73682800
   146  H          0.63689800       0.95754700       0.23682800
   147  H          0.13689800       0.54245300       0.76317200
   148  H          0.36310200       0.45754700       0.26317200
   149  O          0.59677160       0.57267150       0.47003110
   150  O          0.90322840       0.42732850       0.97003110
   151  O          0.40322840       0.07267150       0.02996890
   152  O          0.09677160       0.92732850       0.52996890
   153  H          0.54540000       0.52530000       0.50020000
   154  H          0.95460000       0.47470000       0.00020000
   155  H          0.45460000       0.02530000      -0.00020000
   156  H          0.04540000       0.97470000       0.49980000
   157  O          0.59033160       0.66746160       0.58728100
   158  O          0.90966840       0.33253840       0.08728100
   159  O          0.40966840       0.16746160       0.91271900
   160  O          0.09033160       0.83253840       0.41271900
   161  N          0.73282180       0.80733160       0.53716120
   162  N          0.76717820       0.19266840       0.03716120
   163  N          0.26717820       0.30733160       0.96283880
   164  N          0.23282180       0.69266840       0.46283880
   165  H          0.70454300       0.86939400       0.52054800
   166  H          0.79545700       0.13060600       0.02054800
   167  H          0.29545700       0.36939400       0.97945200
   168  H          0.20454300       0.63060600       0.47945200
   169  H          0.70788800       0.79189000       0.58879800
   170  H          0.79211200       0.20811000       0.08879800
   171  H          0.29211200       0.29189000       0.91120200
   172  H          0.20788800       0.70811000       0.41120200
   173  C          0.62362000       0.64982000       0.51805150
   174  C          0.87638000       0.35018000       0.01805150
   175  C          0.37638000       0.14982000       0.98194850
   176  C          0.12362000       0.85018000       0.48194850
   177  C          0.70402000       0.72142000       0.47654150
   178  C          0.79598000       0.27858000       0.97654150
   179  C          0.29598000       0.22142000       0.02345850
   180  C          0.20402000       0.77858000       0.52345850
   181  H          0.67351300       0.75270900       0.42485800
   182  H          0.82648700       0.24729100       0.92485800
   183  H          0.32648700       0.25270900       0.07514200
   184  H          0.17351300       0.74729100       0.57514200
   185  C          0.80902000       0.66772000       0.45627170
   186  C          0.69098000       0.33228000       0.95627170
   187  C          0.19098000       0.16772000       0.04372830
   188  C          0.30902000       0.83228000       0.54372830
   189  H          0.80112600       0.59054000       0.45599500
   190  H          0.69887400       0.40946000       0.95599500
   191  H          0.19887400       0.09054000       0.04400500
   192  H          0.30112600       0.90946000       0.54400500
   193  H          0.83560700       0.69058400       0.40129500
   194  H          0.66439300       0.30941600       0.90129500
   195  H          0.16439300       0.19058400       0.09870500
   196  H          0.33560700       0.80941600       0.59870500
   197  C          0.88252000       0.70242000       0.52543170
   198  C          0.61748000       0.29758000       0.02543170
   199  C          0.11748000       0.20242000       0.97456830
   200  C          0.38252000       0.79758000       0.47456830
   201  H          0.87185800       0.66021100       0.57644900
   202  H          0.62814200       0.33978900       0.07644900
   203  H          0.12814200       0.16021100       0.92355100
   204  H          0.37185800       0.83978900       0.42355100
   205  H          0.95677200       0.69712200       0.50797600
   206  H          0.54322800       0.30287800       0.00797600
   207  H          0.04322800       0.19712200      -0.00797600
   208  H          0.45677200       0.80287800       0.49202400
   209  C          0.85082000       0.81482000       0.53884170
   210  C          0.64918000       0.18518000       0.03884170
   211  C          0.14918000       0.31482000       0.96115830
   212  C          0.35082000       0.68518000       0.46115830
   213  H          0.87727700       0.86050300       0.49373300
   214  H          0.62272300       0.13949700      -0.00626700
   215  H          0.12272300       0.36050300       0.00626700
   216  H          0.37727700       0.63949700       0.50626700
   217  H          0.87623100       0.84140700       0.59307000
   218  H          0.62376900       0.15859300       0.09307000
   219  H          0.12376900       0.34140700       0.90693000
   220  H          0.37623100       0.65859300       0.40693000
   221  O          0.47054140       0.44820150       0.53398100
   222  O          0.02945860       0.55179850       0.03398100
   223  O          0.52945860       0.94820150       0.96601900
   224  O          0.97054140       0.05179850       0.46601900
   225  O          0.39057160       0.44395150       0.41019100
   226  O          0.10942840       0.55604850       0.91019100
   227  O          0.60942840       0.94395150       0.08980900
   228  O          0.89057160       0.05604850       0.58980900
   229  N          0.24875150       0.30014160       0.45617110
   230  N          0.25124850       0.69985840       0.95617110
   231  N          0.75124850       0.80014160       0.04382890
   232  N          0.74875150       0.19985840       0.54382890
   233  H          0.28172200       0.28520800       0.40734800
   234  H          0.21827800       0.71479200       0.90734800
   235  H          0.71827800       0.78520800       0.09265200
   236  H          0.78172200       0.21479200       0.59265200
   237  H          0.19889100       0.34973500       0.44661200
   238  H          0.30110900       0.65026500       0.94661200
   239  H          0.80110900       0.84973500       0.05338800
   240  H          0.69889100       0.15026500       0.55338800
   241  C          0.40039190       0.41624180       0.48250140
   242  C          0.09960810       0.58375820       0.98250140
   243  C          0.59960810       0.91624180       0.01749860
   244  C          0.90039190       0.08375820       0.51749860
   245  C          0.32522000       0.33692180       0.51961140
   246  C          0.17478000       0.66307820       0.01961140
   247  C          0.67478000       0.83692180       0.98038860
   248  C          0.82522000       0.16307820       0.48038860
   249  H          0.28647700       0.36988700       0.56698100
   250  H          0.21352300       0.63011300       0.06698100
   251  H          0.71352300       0.86988700       0.93301900
   252  H          0.78647700       0.13011300       0.43301900
   253  C          0.37652000       0.23423180       0.54940150
   254  C          0.12348000       0.76576820       0.04940150
   255  C          0.62348000       0.73423180       0.95059850
   256  C          0.87652000       0.26576820       0.45059850
   257  H          0.43922700       0.21765800       0.51553800
   258  H          0.06077300       0.78234200       0.01553800
   259  H          0.56077300       0.71765800       0.98446200
   260  H          0.93922700       0.28234200       0.48446200
   261  H          0.39766400       0.23971500       0.60853300
   262  H          0.10233600       0.76028500       0.10853300
   263  H          0.60233600       0.73971500       0.89146700
   264  H          0.89766400       0.26028500       0.39146700
   265  C          0.29182000       0.14982000       0.53818180
   266  C          0.20818000       0.85018000       0.03818180
   267  C          0.70818000       0.64982000       0.96181820
   268  C          0.79182000       0.35018000       0.46181820
   269  H          0.31917800       0.09051400       0.50489500
   270  H          0.18082200       0.90948600       0.00489500
   271  H          0.68082200       0.59051400      -0.00489500
   272  H          0.81917800       0.40948600       0.49510500
   273  H          0.26843000       0.12282400       0.59291900
   274  H          0.23157000       0.87717600       0.09291900
   275  H          0.73157000       0.62282400       0.90708100
   276  H          0.76843000       0.37717600       0.40708100
   277  C          0.20082000       0.20332000       0.49276190
   278  C          0.29918000       0.79668000      -0.00723810
   279  C          0.79918000       0.70332000       0.00723810
   280  C          0.70082000       0.29668000       0.50723810
   281  H          0.17214800       0.15739800       0.44858900
   282  H          0.32785200       0.84260200       0.94858900
   283  H          0.82785200       0.65739800       0.05141100
   284  H          0.67214800       0.34260200       0.55141100
   285  H          0.14374800       0.22147000       0.53202900
   286  H          0.35625200       0.77853000       0.03202900
   287  H          0.85625200       0.72147000       0.96797100
   288  H          0.64374800       0.27853000       0.46797100
