data_CADKUP
_symmetry_space_group_name_H-M    'P1'
_symmetry_Int_Tables_number       1
loop_
_symmetry_equiv_pos_site_id
_symmetry_equiv_pos_as_xyz
1 x,y,z
_cell_length_a                   12.84826
_cell_length_b                   12.84826
_cell_length_c                   16.41267
_cell_angle_alpha                90.0
_cell_angle_beta                 90.0
_cell_angle_gamma                90.0
loop_
_atom_site_label
_atom_site_type_symbol
_atom_site_fract_x
_atom_site_fract_y
_atom_site_fract_z
     1  Br         0.00194200       0.31146200       0.12292514
     2  Br        -0.00194200       0.68853800       0.62292514
     3  Br         0.18853800       0.50194200       0.37292514
     4  Br         0.81146200       0.49805800       0.87292514
     5  Br         0.49805800       0.81146200       0.12707486
     6  Br         0.50194200       0.18853800       0.62707486
     7  Br         0.31146200       0.00194200       0.87707486
     8  Br         0.68853800      -0.00194200       0.37707486
     9  O          0.43586160       0.12607180       0.21941100
    10  O          0.56413840       0.87392820       0.71941100
    11  O          0.37392820       0.93586160       0.46941100
    12  O          0.62607180       0.06413840       0.96941100
    13  O          0.06413840       0.62607180       0.03058900
    14  O          0.93586160       0.37392820       0.53058900
    15  O          0.12607180       0.43586160       0.78058900
    16  O          0.87392820       0.56413840       0.28058900
    17  O          0.44016150       0.20266130       0.09791110
    18  O          0.55983850       0.79733870       0.59791110
    19  O          0.29733870       0.94016150       0.34791110
    20  O          0.70266130       0.05983850       0.84791110
    21  O          0.05983850       0.70266130       0.15208890
    22  O          0.94016150       0.29733870       0.65208890
    23  O          0.20266130       0.44016150       0.90208890
    24  O          0.79733870       0.55983850       0.40208890
    25  C          0.40980180       0.13341190       0.14879130
    26  C          0.59019820       0.86658810       0.64879130
    27  C          0.36658810       0.90980180       0.39879130
    28  C          0.63341190       0.09019820       0.89879130
    29  C          0.09019820       0.63341190       0.10120870
    30  C          0.90980180       0.36658810       0.60120870
    31  C          0.13341190       0.40980180       0.85120870
    32  C          0.86658810       0.59019820       0.35120870
    33  C          0.33557170       0.05510170       0.11196120
    34  C          0.66442830       0.94489830       0.61196120
    35  C          0.44489830       0.83557170       0.36196120
    36  C          0.55510170       0.16442830       0.86196120
    37  C          0.16442830       0.55510170       0.13803880
    38  C          0.83557170       0.44489830       0.63803880
    39  C          0.05510170       0.33557170       0.88803880
    40  C          0.94489830       0.66442830       0.38803880
    41  H          0.37361900       0.01581800       0.07191500
    42  H          0.62638100       0.98418200       0.57191500
    43  H          0.48418200       0.87361900       0.32191500
    44  H          0.51581800       0.12638100       0.82191500
    45  H          0.12638100       0.51581800       0.17808500
    46  H          0.87361900       0.48418200       0.67808500
    47  H          0.01581800       0.37361900       0.92808500
    48  H          0.98418200       0.62638100       0.42808500
    49  N          0.30970180       0.97316820       0.17285120
    50  N          0.69029820       0.02683180       0.67285120
    51  N          0.52683180       0.80970180       0.42285120
    52  N          0.47316820       0.19029820       0.92285120
    53  N          0.19029820       0.47316820       0.07714880
    54  N          0.80970180       0.52683180       0.57714880
    55  N          0.97316820       0.30970180       0.82714880
    56  N          0.02683180       0.69029820       0.32714880
    57  H          0.35750000       0.92200000       0.17160000
    58  H          0.64250000       0.07800000       0.67160000
    59  H          0.57800000       0.85750000       0.42160000
    60  H          0.42200000       0.14250000       0.92160000
    61  H          0.14250000       0.42200000       0.07840000
    62  H          0.85750000       0.57800000       0.57840000
    63  H          0.92200000       0.35750000       0.82840000
    64  H          0.07800000       0.64250000       0.32840000
    65  H          0.30830000       0.00040000       0.22340000
    66  H          0.69170000      -0.00040000       0.72340000
    67  H          0.49960000       0.80830000       0.47340000
    68  H          0.50040000       0.19170000       0.97340000
    69  H          0.19170000       0.50040000       0.02660000
    70  H          0.80830000       0.49960000       0.52660000
    71  H          0.00040000       0.30830000       0.77660000
    72  H         -0.00040000       0.69170000       0.27660000
    73  C          0.20543000       0.93167000       0.15052000
    74  C          0.79457000       0.06833000       0.65052000
    75  C          0.56833000       0.70543000       0.40052000
    76  C          0.43167000       0.29457000       0.90052000
    77  C          0.29457000       0.43167000       0.09948000
    78  C          0.70543000       0.56833000       0.59948000
    79  C          0.93167000       0.20543000       0.84948000
    80  C          0.06833000       0.79457000       0.34948000
    81  H          0.21190000       0.86270000       0.12700000
    82  H          0.78810000       0.13730000       0.62700000
    83  H          0.63730000       0.71190000       0.37700000
    84  H          0.36270000       0.28810000       0.87700000
    85  H          0.28810000       0.36270000       0.12300000
    86  H          0.71190000       0.63730000       0.62300000
    87  H          0.86270000       0.21190000       0.87300000
    88  H          0.13730000       0.78810000       0.37300000
    89  H          0.16140000       0.92710000       0.19840000
    90  H          0.83860000       0.07290000       0.69840000
    91  H          0.57290000       0.66140000       0.44840000
    92  H          0.42710000       0.33860000       0.94840000
    93  H          0.33860000       0.42710000       0.05160000
    94  H          0.66140000       0.57290000       0.55160000
    95  H          0.92710000       0.16140000       0.80160000
    96  H          0.07290000       0.83860000       0.30160000
    97  C          0.16023000       0.00373000       0.09113000
    98  C          0.83977000      -0.00373000       0.59113000
    99  C          0.49627000       0.66023000       0.34113000
   100  C          0.50373000       0.33977000       0.84113000
   101  C          0.33977000       0.50373000       0.15887000
   102  C          0.66023000       0.49627000       0.65887000
   103  C          0.00373000       0.16023000       0.90887000
   104  C         -0.00373000       0.83977000       0.40887000
   105  H          0.09130000       0.02510000       0.10850000
   106  H          0.90870000       0.97490000       0.60850000
   107  H          0.47490000       0.59130000       0.35850000
   108  H          0.52510000       0.40870000       0.85850000
   109  H          0.40870000       0.52510000       0.14150000
   110  H          0.59130000       0.47490000       0.64150000
   111  H          0.02510000       0.09130000       0.89150000
   112  H          0.97490000       0.90870000       0.39150000
   113  H          0.15440000       0.97030000       0.03830000
   114  H          0.84560000       0.02970000       0.53830000
   115  H          0.52970000       0.65440000       0.28830000
   116  H          0.47030000       0.34560000       0.78830000
   117  H          0.34560000       0.47030000       0.21170000
   118  H          0.65440000       0.52970000       0.71170000
   119  H          0.97030000       0.15440000       0.96170000
   120  H          0.02970000       0.84560000       0.46170000
   121  C          0.23142000       0.09722000       0.08558170
   122  C          0.76858000       0.90278000       0.58558170
   123  C          0.40278000       0.73142000       0.33558170
   124  C          0.59722000       0.26858000       0.83558170
   125  C          0.26858000       0.59722000       0.16441830
   126  C          0.73142000       0.40278000       0.66441830
   127  C          0.09722000       0.23142000       0.91441830
   128  C          0.90278000       0.76858000       0.41441830
   129  H          0.23440000       0.12370000       0.03030000
   130  H          0.76560000       0.87630000       0.53030000
   131  H          0.37630000       0.73440000       0.28030000
   132  H          0.62370000       0.26560000       0.78030000
   133  H          0.26560000       0.62370000       0.21970000
   134  H          0.73440000       0.37630000       0.71970000
   135  H          0.12370000       0.23440000       0.96970000
   136  H          0.87630000       0.76560000       0.46970000
   137  H          0.20830000       0.15240000       0.12160000
   138  H          0.79170000       0.84760000       0.62160000
   139  H          0.34760000       0.70830000       0.37160000
   140  H          0.65240000       0.29170000       0.87160000
   141  H          0.29170000       0.65240000       0.12840000
   142  H          0.70830000       0.34760000       0.62840000
   143  H          0.15240000       0.20830000       0.87840000
   144  H          0.84760000       0.79170000       0.37840000
   145  O          0.56718830       0.32561160       0.15424120
   146  O          0.43281170       0.67438840       0.65424120
   147  O          0.17438840       0.06718830       0.40424120
   148  O          0.82561160       0.93281170       0.90424120
   149  O          0.93281170       0.82561160       0.09575880
   150  O          0.06718830       0.17438840       0.59575880
   151  O          0.32561160       0.56718830       0.84575880
   152  O          0.67438840       0.43281170       0.34575880
   153  H          0.51570000       0.27650000       0.12820000
   154  H          0.48430000       0.72350000       0.62820000
   155  H          0.22350000       0.01570000       0.37820000
   156  H          0.77650000       0.98430000       0.87820000
   157  H          0.98430000       0.77650000       0.12180000
   158  H          0.01570000       0.22350000       0.62180000
   159  H          0.27650000       0.51570000       0.87180000
   160  H          0.72350000       0.48430000       0.37180000
   161  O          0.63756810       0.33157170       0.03139110
   162  O          0.36243190       0.66842830       0.53139110
   163  O          0.16842830       0.13756810       0.28139110
   164  O          0.83157170       0.86243190       0.78139110
   165  O          0.86243190       0.83157170       0.21860890
   166  O          0.13756810       0.16842830       0.71860890
   167  O          0.33157170       0.63756810       0.96860890
   168  O          0.66842830       0.36243190       0.46860890
   169  C          0.63328000       0.35776190       0.10200140
   170  C          0.36672000       0.64223810       0.60200140
   171  C          0.14223810       0.13328000       0.35200140
   172  C          0.85776190       0.86672000       0.85200140
   173  C          0.86672000       0.85776190       0.14799860
   174  C          0.13328000       0.14223810       0.64799860
   175  C          0.35776190       0.63328000       0.89799860
   176  C          0.64223810       0.36672000       0.39799860
   177  C          0.70698810       0.43712000       0.13619150
   178  C          0.29301190       0.56288000       0.63619150
   179  C          0.06288000       0.20698810       0.38619150
   180  C          0.93712000       0.79301190       0.88619150
   181  C          0.79301190       0.93712000       0.11380850
   182  C          0.20698810       0.06288000       0.61380850
   183  C          0.43712000       0.70698810       0.86380850
   184  C          0.56288000       0.29301190       0.36380850
   185  H          0.73580000       0.41320000       0.18521600
   186  H          0.26420000       0.58680000       0.68521600
   187  H          0.08680000       0.23580000       0.43521600
   188  H          0.91320000       0.76420000       0.93521600
   189  H          0.76420000       0.91320000       0.06478400
   190  H          0.23580000       0.08680000       0.56478400
   191  H          0.41320000       0.73580000       0.81478400
   192  H          0.58680000       0.26420000       0.31478400
   193  N          0.79519840       0.45635180       0.07862120
   194  N          0.20480160       0.54364820       0.57862120
   195  N          0.04364820       0.29519840       0.32862120
   196  N          0.95635180       0.70480160       0.82862120
   197  N          0.70480160       0.95635180       0.17137880
   198  N          0.29519840       0.04364820       0.67137880
   199  N          0.45635180       0.79519840       0.92137880
   200  N          0.54364820       0.20480160       0.42137880
   201  H          0.84890000       0.41380000       0.09010000
   202  H          0.15110000       0.58620000       0.59010000
   203  H          0.08620000       0.34890000       0.34010000
   204  H          0.91380000       0.65110000       0.84010000
   205  H          0.65110000       0.91380000       0.15990000
   206  H          0.34890000       0.08620000       0.65990000
   207  H          0.41380000       0.84890000       0.90990000
   208  H          0.58620000       0.15110000       0.40990000
   209  H          0.77490000       0.44480000       0.02690000
   210  H          0.22510000       0.55520000       0.52690000
   211  H          0.05520000       0.27490000       0.27690000
   212  H          0.94480000       0.72510000       0.77690000
   213  H          0.72510000       0.94480000       0.22310000
   214  H          0.27490000       0.05520000       0.72310000
   215  H          0.44480000       0.77490000       0.97310000
   216  H          0.55520000       0.22510000       0.47310000
   217  C          0.82627000       0.56633000       0.08933180
   218  C          0.17373000       0.43367000       0.58933180
   219  C          0.93367000       0.32627000       0.33933180
   220  C          0.06633000       0.67373000       0.83933180
   221  C          0.67373000       0.06633000       0.16066820
   222  C          0.32627000       0.93367000       0.66066820
   223  C          0.56633000       0.82627000       0.91066820
   224  C          0.43367000       0.17373000       0.41066820
   225  H          0.87740000       0.57320000       0.13250000
   226  H          0.12260000       0.42680000       0.63250000
   227  H          0.92680000       0.37740000       0.38250000
   228  H          0.07320000       0.62260000       0.88250000
   229  H          0.62260000       0.07320000       0.11750000
   230  H          0.37740000       0.92680000       0.61750000
   231  H          0.57320000       0.87740000       0.86750000
   232  H          0.42680000       0.12260000       0.36750000
   233  H          0.85540000       0.59420000       0.03930000
   234  H          0.14460000       0.40580000       0.53930000
   235  H          0.90580000       0.35540000       0.28930000
   236  H          0.09420000       0.64460000       0.78930000
   237  H          0.64460000       0.09420000       0.21070000
   238  H          0.35540000       0.90580000       0.71070000
   239  H          0.59420000       0.85540000       0.96070000
   240  H          0.40580000       0.14460000       0.46070000
   241  C          0.73027000       0.61963000       0.11053000
   242  C          0.26973000       0.38037000       0.61053000
   243  C          0.88037000       0.23027000       0.36053000
   244  C          0.11963000       0.76973000       0.86053000
   245  C          0.76973000       0.11963000       0.13947000
   246  C          0.23027000       0.88037000       0.63947000
   247  C          0.61963000       0.73027000       0.88947000
   248  C          0.38037000       0.26973000       0.38947000
   249  H          0.69910000       0.64980000       0.06220000
   250  H          0.30090000       0.35020000       0.56220000
   251  H          0.85020000       0.19910000       0.31220000
   252  H          0.14980000       0.80090000       0.81220000
   253  H          0.80090000       0.14980000       0.18780000
   254  H          0.19910000       0.85020000       0.68780000
   255  H          0.64980000       0.69910000       0.93780000
   256  H          0.35020000       0.30090000       0.43780000
   257  H          0.74450000       0.67520000       0.14900000
   258  H          0.25550000       0.32480000       0.64900000
   259  H          0.82480000       0.24450000       0.39900000
   260  H          0.17520000       0.75550000       0.89900000
   261  H          0.75550000       0.17520000       0.10100000
   262  H          0.24450000       0.82480000       0.60100000
   263  H          0.67520000       0.74450000       0.85100000
   264  H          0.32480000       0.25550000       0.35100000
   265  C          0.65887000       0.54342000       0.14713000
   266  C          0.34113000       0.45658000       0.64713000
   267  C          0.95658000       0.15887000       0.39713000
   268  C          0.04342000       0.84113000       0.89713000
   269  C          0.84113000       0.04342000       0.10287000
   270  C          0.15887000       0.95658000       0.60287000
   271  C          0.54342000       0.65887000       0.85287000
   272  C          0.45658000       0.34113000       0.35287000
   273  H          0.59160000       0.54630000       0.12030000
   274  H          0.40840000       0.45370000       0.62030000
   275  H          0.95370000       0.09160000       0.37030000
   276  H          0.04630000       0.90840000       0.87030000
   277  H          0.90840000       0.04630000       0.12970000
   278  H          0.09160000       0.95370000       0.62970000
   279  H          0.54630000       0.59160000       0.87970000
   280  H          0.45370000       0.40840000       0.37970000
   281  H          0.64910000       0.55830000       0.20450000
   282  H          0.35090000       0.44170000       0.70450000
   283  H          0.94170000       0.14910000       0.45450000
   284  H          0.05830000       0.85090000       0.95450000
   285  H          0.85090000       0.05830000       0.04550000
   286  H          0.14910000       0.94170000       0.54550000
   287  H          0.55830000       0.64910000       0.79550000
   288  H          0.44170000       0.35090000       0.29550000
