data_CADLIE02
_symmetry_space_group_name_H-M    'P1'
_symmetry_Int_Tables_number       1
loop_
_symmetry_equiv_pos_site_id
_symmetry_equiv_pos_as_xyz
1 x,y,z
_cell_length_a                   12.76961
_cell_length_b                   12.74089
_cell_length_c                   15.934013
_cell_angle_alpha                90.0
_cell_angle_beta                 90.0
_cell_angle_gamma                90.0
loop_
_atom_site_label
_atom_site_type_symbol
_atom_site_fract_x
_atom_site_fract_y
_atom_site_fract_z
     1  Cl         0.07968600       0.49672600       0.49941400
     2  Cl         0.42031400       0.50327400      -0.00058600
     3  Cl         0.92031400      -0.00327400       0.00058600
     4  Cl         0.57968600       0.00327400       0.50058600
     5  Cl         0.23120600       0.30300600       0.75403400
     6  Cl         0.26879400       0.69699400       0.25403400
     7  Cl         0.76879400       0.80300600       0.74596600
     8  Cl         0.73120600       0.19699400       0.24596600
     9  O          0.31615180       0.68729160       0.77854130
    10  O          0.18384820       0.31270840       0.27854130
    11  O          0.68384820       0.18729160       0.72145870
    12  O          0.81615180       0.81270840       0.22145870
    13  H          0.25030000       0.73830000       0.75120000
    14  H          0.24970000       0.26170000       0.25120000
    15  H          0.74970000       0.23830000       0.74880000
    16  H          0.75030000       0.76170000       0.24880000
    17  O          0.31413170       0.60168190       0.65541120
    18  O          0.18586830       0.39831810       0.15541120
    19  O          0.68586830       0.10168190       0.84458880
    20  O          0.81413170       0.89831810       0.34458880
    21  N          0.42528190       0.43776190       0.71341140
    22  N          0.07471810       0.56223810       0.21341140
    23  N          0.57471810       0.93776190       0.78658860
    24  N          0.92528190       0.06223810       0.28658860
    25  H          0.37030900       0.39294600       0.71947700
    26  H          0.12969100       0.60705400       0.21947700
    27  H          0.62969100       0.89294600       0.78052300
    28  H          0.87030900       0.10705400       0.28052300
    29  H          0.42897500       0.45806600       0.65874100
    30  H          0.07102500       0.54193400       0.15874100
    31  H          0.57102500       0.95806600       0.84125900
    32  H          0.92897500       0.04193400       0.34125900
    33  C          0.34152000       0.61162000       0.72824160
    34  C          0.15848000       0.38838000       0.22824160
    35  C          0.65848000       0.11162000       0.77175840
    36  C          0.84152000       0.88838000       0.27175840
    37  C          0.41222000       0.53095180       0.76921140
    38  C          0.08778000       0.46904820       0.26921140
    39  C          0.58778000       0.03095180       0.73078860
    40  C          0.91222000       0.96904820       0.23078860
    41  H          0.37926900       0.50756600       0.82297800
    42  H          0.12073100       0.49243400       0.32297800
    43  H          0.62073100       0.00756600       0.67702200
    44  H          0.87926900      -0.00756600       0.17702200
    45  C          0.52512000       0.56673000       0.78752000
    46  C          0.97488000       0.43327000       0.28752000
    47  C          0.47488000       0.06673000       0.71248000
    48  C          0.02512000       0.93327000       0.21248000
    49  H          0.53554000       0.57740400       0.84847400
    50  H          0.96446000       0.42259600       0.34847400
    51  H          0.46446000       0.07740400       0.65152600
    52  H          0.03554000       0.92259600       0.15152600
    53  H          0.54081400       0.63318000       0.75793900
    54  H          0.95918600       0.36682000       0.25793900
    55  H          0.45918600       0.13318000       0.74206100
    56  H          0.04081400       0.86682000       0.24206100
    57  C          0.59613000       0.47733000       0.75503000
    58  C          0.90387000       0.52267000       0.25503000
    59  C          0.40387000       0.97733000       0.74497000
    60  C          0.09613000       0.02267000       0.24497000
    61  H          0.63165000       0.49846400       0.70239200
    62  H          0.86835000       0.50153600       0.20239200
    63  H          0.36835000      -0.00153600       0.79760800
    64  H          0.13165000       0.00153600       0.29760800
    65  H          0.64995200       0.45905200       0.79723000
    66  H          0.85004800       0.54094800       0.29723000
    67  H          0.35004800       0.95905200       0.70277000
    68  H          0.14995200       0.04094800       0.20277000
    69  C          0.52462000       0.38613000       0.73962000
    70  C          0.97538000       0.61387000       0.23962000
    71  C          0.47538000       0.88613000       0.76038000
    72  C          0.02462000       0.11387000       0.26038000
    73  H          0.55208700       0.34002600       0.69464400
    74  H          0.94791300       0.65997400       0.19464400
    75  H          0.44791300       0.84002600       0.80535600
    76  H          0.05208700       0.15997400       0.30535600
    77  H          0.51456000       0.34411300       0.79126300
    78  H          0.98544000       0.65588700       0.29126300
    79  H          0.48544000       0.84411300       0.70873700
    80  H          0.01456000       0.15588700       0.20873700
    81  O          0.18553180       0.80948180       0.72219130
    82  O          0.31446820       0.19051820       0.22219130
    83  O          0.81446820       0.30948180       0.77780870
    84  O          0.68553180       0.69051820       0.27780870
    85  O          0.12052000       0.82211190       0.85176130
    86  O          0.37948000       0.17788810       0.35176130
    87  O          0.87948000       0.32211190       0.64823870
    88  O          0.62052000       0.67788810       0.14823870
    89  N          0.95817810       0.94622000       0.80054140
    90  N          0.54182190       0.05378000       0.30054140
    91  N          0.04182190       0.44622000       0.69945860
    92  N          0.45817810       0.55378000       0.19945860
    93  H          0.97822900       0.93898800       0.85504000
    94  H          0.52177100       0.06101200       0.35504000
    95  H          0.02177100       0.43898800       0.64496000
    96  H          0.47822900       0.56101200       0.14496000
    97  H          0.90620800       0.89921300       0.78968500
    98  H          0.59379200       0.10078700       0.28968500
    99  H          0.09379200       0.39921300       0.71031500
   100  H          0.40620800       0.60078700       0.21031500
   101  C          0.12242000       0.84582000       0.77730170
   102  C          0.37758000       0.15418000       0.27730170
   103  C          0.87758000       0.34582000       0.72269830
   104  C          0.62242000       0.65418000       0.22269830
   105  C          0.04832000       0.92862000       0.74356170
   106  C          0.45168000       0.07138000       0.24356170
   107  C          0.95168000       0.42862000       0.75643830
   108  C          0.54832000       0.57138000       0.25643830
   109  H          0.02223400       0.90691300       0.68699000
   110  H          0.47776600       0.09308700       0.18699000
   111  H          0.97776600       0.40691300       0.81301000
   112  H          0.52223400       0.59308700       0.31301000
   113  C          0.10003000       0.03642000       0.73743000
   114  C          0.39997000       0.96358000       0.23743000
   115  C          0.89997000       0.53642000       0.76257000
   116  C          0.60003000       0.46358000       0.26257000
   117  H          0.15888500       0.04152300       0.77757400
   118  H          0.34111500       0.95847700       0.27757400
   119  H          0.84111500       0.54152300       0.72242600
   120  H          0.65888500       0.45847700       0.22242600
   121  H          0.12744300       0.04793600       0.68003200
   122  H          0.37255700       0.95206400       0.18003200
   123  H          0.87255700       0.54793600       0.81996800
   124  H          0.62744300       0.45206400       0.31996800
   125  C          0.01803000       0.11623000       0.75773000
   126  C          0.48197000       0.88377000       0.25773000
   127  C          0.98197000       0.61623000       0.74227000
   128  C          0.51803000       0.38377000       0.24227000
   129  H          0.00304800       0.16033100       0.70798800
   130  H          0.49695200       0.83966900       0.20798800
   131  H         -0.00304800       0.66033100       0.79201200
   132  H          0.50304800       0.33966900       0.29201200
   133  H          0.04198500       0.16229200       0.80391500
   134  H          0.45801500       0.83770800       0.30391500
   135  H          0.95801500       0.66229200       0.69608500
   136  H          0.54198500       0.33770800       0.19608500
   137  C          0.92097000       0.05683000       0.78377190
   138  C          0.57903000       0.94317000       0.28377190
   139  C          0.07903000       0.55683000       0.71622810
   140  C          0.42097000       0.44317000       0.21622810
   141  H          0.86803700       0.05770100       0.73842700
   142  H          0.63196300       0.94229900       0.23842700
   143  H          0.13196300       0.55770100       0.76157300
   144  H          0.36803700       0.44229900       0.26157300
   145  H          0.88995300       0.08796500       0.83495800
   146  H          0.61004700       0.91203500       0.33495800
   147  H          0.11004700       0.58796500       0.66504200
   148  H          0.38995300       0.41203500       0.16504200
   149  O          0.58982000       0.57058190       0.47679150
   150  O          0.91018000       0.42941810       0.97679150
   151  O          0.41018000       0.07058190       0.02320850
   152  O          0.08982000       0.92941810       0.52320850
   153  H          0.53540000       0.51440000       0.50830000
   154  H          0.96460000       0.48560000       0.00830000
   155  H          0.46460000       0.01440000      -0.00830000
   156  H          0.03540000       0.98560000       0.49170000
   157  O          0.58722000       0.66342000       0.59596150
   158  O          0.91278000       0.33658000       0.09596150
   159  O          0.41278000       0.16342000       0.90403850
   160  O          0.08722000       0.83658000       0.40403850
   161  N          0.72712000       0.80593190       0.54116140
   162  N          0.77288000       0.19406810       0.04116140
   163  N          0.27288000       0.30593190       0.95883860
   164  N          0.22712000       0.69406810       0.45883860
   165  H          0.69310900       0.86529800       0.52481400
   166  H          0.80689100       0.13470200       0.02481400
   167  H          0.30689100       0.36529800       0.97518600
   168  H          0.19310900       0.63470200       0.47518600
   169  H          0.70815800       0.79082500       0.59487800
   170  H          0.79184200       0.20917500       0.09487800
   171  H          0.29184200       0.29082500       0.90512200
   172  H          0.20815800       0.70917500       0.40512200
   173  C          0.61902000       0.64662000       0.52545180
   174  C          0.88098000       0.35338000       0.02545180
   175  C          0.38098000       0.14662000       0.97454820
   176  C          0.11902000       0.85338000       0.47454820
   177  C          0.69972000       0.71652000       0.48419180
   178  C          0.80028000       0.28348000       0.98419180
   179  C          0.30028000       0.21652000       0.01580820
   180  C          0.19972000       0.78348000       0.51580820
   181  H          0.67047300       0.74491700       0.43056600
   182  H          0.82952700       0.25508300       0.93056600
   183  H          0.32952700       0.24491700       0.06943400
   184  H          0.17047300       0.75508300       0.56943400
   185  C          0.80383000       0.66283000       0.46654000
   186  C          0.69617000       0.33717000       0.96654000
   187  C          0.19617000       0.16283000       0.03346000
   188  C          0.30383000       0.83717000       0.53346000
   189  H          0.79922300       0.58692200       0.47948800
   190  H          0.70077700       0.41307800       0.97948800
   191  H          0.20077700       0.08692200       0.02051200
   192  H          0.29922300       0.91307800       0.52051200
   193  H          0.82307400       0.67088900       0.40661700
   194  H          0.67692600       0.32911100       0.90661700
   195  H          0.17692600       0.17088900       0.09338300
   196  H          0.32307400       0.82911100       0.59338300
   197  C          0.88053000       0.71254000       0.51923000
   198  C          0.61947000       0.28746000       0.01923000
   199  C          0.11947000       0.21254000       0.98077000
   200  C          0.38053000       0.78746000       0.48077000
   201  H          0.94940200       0.71419300       0.49079100
   202  H          0.55059800       0.28580700       0.99079100
   203  H          0.05059800       0.21419300       0.00920900
   204  H          0.44940200       0.78580700       0.50920900
   205  H          0.88794700       0.67354600       0.57263300
   206  H          0.61205300       0.32645400       0.07263300
   207  H          0.11205300       0.17354600       0.92736700
   208  H          0.38794700       0.82645400       0.42736700
   209  C          0.84273000       0.82103000       0.53542000
   210  C          0.65727000       0.17897000       0.03542000
   211  C          0.15727000       0.32103000       0.96458000
   212  C          0.34273000       0.67897000       0.46458000
   213  H          0.86139600       0.86882000       0.48882300
   214  H          0.63860400       0.13118000       0.98882300
   215  H          0.13860400       0.36882000       0.01117700
   216  H          0.36139600       0.63118000       0.51117700
   217  H          0.87163200       0.84905600       0.58853900
   218  H          0.62836800       0.15094400       0.08853900
   219  H          0.12836800       0.34905600       0.91146100
   220  H          0.37163200       0.65094400       0.41146100
   221  O          0.46441160       0.44316170       0.53908130
   222  O          0.03558840       0.55683830       0.03908130
   223  O          0.53558840       0.94316170       0.96091870
   224  O          0.96441160       0.05683830       0.46091870
   225  O          0.38832000       0.43842000       0.41286130
   226  O          0.11168000       0.56158000       0.91286130
   227  O          0.61168000       0.93842000       0.08713870
   228  O          0.88832000       0.06158000       0.58713870
   229  N          0.23302000       0.31172000       0.45966140
   230  N          0.26698000       0.68828000       0.95966140
   231  N          0.76698000       0.81172000       0.04033860
   232  N          0.73302000       0.18828000       0.54033860
   233  H          0.18269900       0.36218200       0.45720000
   234  H          0.31730100       0.63781800       0.95720000
   235  H          0.81730100       0.86218200       0.04280000
   236  H          0.68269900       0.13781800       0.54280000
   237  H          0.26317700       0.30576800       0.40814400
   238  H          0.23682300       0.69423200       0.90814400
   239  H          0.73682300       0.80576800       0.09185600
   240  H          0.76317700       0.19423200       0.59185600
   241  C          0.39442000       0.41322000       0.48652160
   242  C          0.10558000       0.58678000       0.98652160
   243  C          0.60558000       0.91322000       0.01347840
   244  C          0.89442000       0.08678000       0.51347840
   245  C          0.31312000       0.33932000       0.52371150
   246  C          0.18688000       0.66068000       0.02371150
   247  C          0.68688000       0.83932000       0.97628850
   248  C          0.81312000       0.16068000       0.47628850
   249  H          0.27799700       0.37460300       0.57221600
   250  H          0.22200300       0.62539700       0.07221600
   251  H          0.72200300       0.87460300       0.92778400
   252  H          0.77799700       0.12539700       0.42778400
   253  C          0.35493000       0.23312000       0.55192000
   254  C          0.14507000       0.76688000       0.05192000
   255  C          0.64507000       0.73312000       0.94808000
   256  C          0.85493000       0.26688000       0.44808000
   257  H          0.41287200       0.20961700       0.51515100
   258  H          0.08712800       0.79038300       0.01515100
   259  H          0.58712800       0.70961700       0.98484900
   260  H          0.91287200       0.29038300       0.48484900
   261  H          0.38036000       0.23629300       0.61049500
   262  H          0.11964000       0.76370700       0.11049500
   263  H          0.61964000       0.73629300       0.88950500
   264  H          0.88036000       0.26370700       0.38950500
   265  C          0.26214000       0.16043000       0.54453000
   266  C          0.23786000       0.83957000       0.04453000
   267  C          0.73786000       0.66043000       0.95547000
   268  C          0.76214000       0.33957000       0.45547000
   269  H          0.28455600       0.09114900       0.52291300
   270  H          0.21544400       0.90885100       0.02291300
   271  H          0.71544400       0.59114900       0.97708700
   272  H          0.78455600       0.40885100       0.47708700
   273  H          0.22907000       0.15015700       0.60016900
   274  H          0.27093000       0.84984300       0.10016900
   275  H          0.77093000       0.65015700       0.89983100
   276  H          0.72907000       0.34984300       0.39983100
   277  C          0.18653000       0.20993000       0.48563000
   278  C          0.31347000       0.79007000       0.98563000
   279  C          0.81347000       0.70993000       0.01437000
   280  C          0.68653000       0.29007000       0.51437000
   281  H          0.17537100       0.16427100       0.43603300
   282  H          0.32462900       0.83572900       0.93603300
   283  H          0.82462900       0.66427100       0.06396700
   284  H          0.67537100       0.33572900       0.56396700
   285  H          0.11825800       0.22129200       0.51356300
   286  H          0.38174200       0.77870800       0.01356300
   287  H          0.88174200       0.72129200       0.98643700
   288  H          0.61825800       0.27870800       0.48643700
