data_CADLIE03
_symmetry_space_group_name_H-M    'P1'
_symmetry_Int_Tables_number       1
loop_
_symmetry_equiv_pos_site_id
_symmetry_equiv_pos_as_xyz
1 x,y,z
_cell_length_a                   12.656011
_cell_length_b                   12.66441
_cell_length_c                   15.749912
_cell_angle_alpha                90.0
_cell_angle_beta                 90.0
_cell_angle_gamma                90.0
loop_
_atom_site_label
_atom_site_type_symbol
_atom_site_fract_x
_atom_site_fract_y
_atom_site_fract_z
     1  Cl         0.08514300       0.49175300       0.49765300
     2  Cl         0.41485700       0.50824700      -0.00234700
     3  Cl         0.91485700      -0.00824700       0.00234700
     4  Cl         0.58514300       0.00824700       0.50234700
     5  Cl         0.22970300       0.29645300       0.75094300
     6  Cl         0.27029700       0.70354700       0.25094300
     7  Cl         0.77029700       0.79645300       0.74905700
     8  Cl         0.72970300       0.20354700       0.24905700
     9  O          0.31827100       0.68332110       0.77702900
    10  O          0.18172900       0.31667890       0.27702900
    11  O          0.68172900       0.18332110       0.72297100
    12  O          0.81827100       0.81667890       0.22297100
    13  H          0.26530000       0.72730000       0.75120000
    14  H          0.23470000       0.27270000       0.25120000
    15  H          0.73470000       0.22730000       0.74880000
    16  H          0.76530000       0.77270000       0.24880000
    17  O          0.31724110       0.59805110       0.65194800
    18  O          0.18275890       0.40194890       0.15194800
    19  O          0.68275890       0.09805110       0.84805200
    20  O          0.81724110       0.90194890       0.34805200
    21  N          0.42618120       0.43196120       0.71205900
    22  N          0.07381880       0.56803880       0.21205900
    23  N          0.57381880       0.93196120       0.78794100
    24  N          0.92618120       0.06803880       0.28794100
    25  H          0.42908600       0.45147700       0.65648900
    26  H          0.07091400       0.54852300       0.15648900
    27  H          0.57091400       0.95147700       0.84351100
    28  H          0.92908600       0.04852300       0.34351100
    29  H          0.37042700       0.38751600       0.71939300
    30  H          0.12957300       0.61248400       0.21939300
    31  H          0.62957300       0.88751600       0.78060700
    32  H          0.87042700       0.11248400       0.28060700
    33  C          0.34461130       0.60718140       0.72584110
    34  C          0.15538870       0.39281860       0.22584110
    35  C          0.65538870       0.10718140       0.77415890
    36  C          0.84461130       0.89281860       0.27415890
    37  C          0.41571140       0.52616130       0.76767100
    38  C          0.08428860       0.47383870       0.26767100
    39  C          0.58428860       0.02616130       0.73232900
    40  C          0.91571140       0.97383870       0.23232900
    41  H          0.38322100       0.50400900       0.82273900
    42  H          0.11677900       0.49599100       0.32273900
    43  H          0.61677900       0.00400900       0.67726100
    44  H          0.88322100      -0.00400900       0.17726100
    45  C          0.53057140       0.56230160       0.78429120
    46  C          0.96942860       0.43769840       0.28429120
    47  C          0.46942860       0.06230160       0.71570880
    48  C          0.03057140       0.93769840       0.21570880
    49  H          0.54506500       0.63010300       0.75525800
    50  H          0.95493500       0.36989700       0.25525800
    51  H          0.45493500       0.13010300       0.74474200
    52  H          0.04506500       0.86989700       0.24474200
    53  H          0.54326600       0.57136600       0.84588200
    54  H          0.95673400       0.42863400       0.34588200
    55  H          0.45673400       0.07136600       0.65411800
    56  H          0.04326600       0.92863400       0.15411800
    57  C          0.60078130       0.47410150       0.74823130
    58  C          0.89921870       0.52589850       0.24823130
    59  C          0.39921870       0.97410150       0.75176870
    60  C          0.10078130       0.02589850       0.25176870
    61  H          0.63103400       0.49497200       0.69274600
    62  H          0.86896600       0.50502800       0.19274600
    63  H          0.36896600      -0.00502800       0.80725400
    64  H          0.13103400       0.00502800       0.30725400
    65  H          0.65919800       0.45726800       0.78777500
    66  H          0.84080200       0.54273200       0.28777500
    67  H          0.34080200       0.95726800       0.71222500
    68  H          0.15919800       0.04273200       0.21222500
    69  C          0.52656140       0.37991150       0.73827120
    70  C          0.97343860       0.62008850       0.23827120
    71  C          0.47343860       0.87991150       0.76172880
    72  C          0.02656140       0.12008850       0.26172880
    73  H          0.55219300       0.33050200       0.69412900
    74  H          0.94780700       0.66949800       0.19412900
    75  H          0.44780700       0.83050200       0.80587100
    76  H          0.05219300       0.16949800       0.30587100
    77  H          0.51800800       0.34131600       0.79249700
    78  H          0.98199200       0.65868400       0.29249700
    79  H          0.48199200       0.84131600       0.70750300
    80  H          0.01800800       0.15868400       0.20750300
    81  O          0.18488100       0.80414110       0.72125800
    82  O          0.31511900       0.19585890       0.22125800
    83  O          0.81511900       0.30414110       0.77874200
    84  O          0.68488100       0.69585890       0.27874200
    85  O          0.12324110       0.81853110       0.85409800
    86  O          0.37675890       0.18146890       0.35409800
    87  O          0.87675890       0.31853110       0.64590200
    88  O          0.62324110       0.68146890       0.14590200
    89  N          0.95808880       0.94340130       0.80314900
    90  N          0.54191120       0.05659870       0.30314900
    91  N          0.04191120       0.44340130       0.69685100
    92  N          0.45808880       0.55659870       0.19685100
    93  H          0.97862300       0.93918700       0.85841200
    94  H          0.52137700       0.06081300       0.35841200
    95  H          0.02137700       0.43918700       0.64158800
    96  H          0.47862300       0.56081300       0.14158800
    97  H          0.90747800       0.89380400       0.79344600
    98  H          0.59252200       0.10619600       0.29344600
    99  H          0.09252200       0.39380400       0.70655400
   100  H          0.40747800       0.60619600       0.20655400
   101  C          0.12357130       0.84187130       0.77844110
   102  C          0.37642870       0.15812870       0.27844110
   103  C          0.87642870       0.34187130       0.72155890
   104  C          0.62357130       0.65812870       0.22155890
   105  C          0.04972130       0.92712140       0.74570110
   106  C          0.45027870       0.07287860       0.24570110
   107  C          0.95027870       0.42712140       0.75429890
   108  C          0.54972130       0.57287860       0.25429890
   109  H          0.02419100       0.90812300       0.68758700
   110  H          0.47580900       0.09187700       0.18758700
   111  H          0.97580900       0.40812300       0.81241300
   112  H          0.52419100       0.59187700       0.31241300
   113  C          0.10271150       0.03540140       0.74364160
   114  C          0.39728850       0.96459860       0.24364160
   115  C          0.89728850       0.53540140       0.75635840
   116  C          0.60271150       0.46459860       0.25635840
   117  H          0.13957600       0.04650000       0.68892500
   118  H          0.36042400       0.95350000       0.18892500
   119  H          0.86042400       0.54650000       0.81107500
   120  H          0.63957600       0.45350000       0.31107500
   121  H          0.15461100       0.04213300       0.79035700
   122  H          0.34538900       0.95786700       0.29035700
   123  H          0.84538900       0.54213300       0.70964300
   124  H          0.65461100       0.45786700       0.20964300
   125  C          0.01292150       0.11522150       0.75446140
   126  C          0.48707850       0.88477850       0.25446140
   127  C          0.98707850       0.61522150       0.74553860
   128  C          0.51292150       0.38477850       0.24553860
   129  H          0.03189000       0.16893800       0.79750400
   130  H          0.46811000       0.83106200       0.29750400
   131  H          0.96811000       0.66893800       0.70249600
   132  H          0.53189000       0.33106200       0.20249600
   133  H         -0.00184700       0.15146400       0.70004100
   134  H          0.50184700       0.84853600       0.20004100
   135  H          0.00184700       0.65146400       0.79995900
   136  H          0.49815300       0.34853600       0.29995900
   137  C          0.91676850       0.05211160       0.78326120
   138  C          0.58323150       0.94788840       0.28326120
   139  C          0.08323150       0.55211160       0.71673880
   140  C          0.41676850       0.44788840       0.21673880
   141  H          0.88452800       0.08448600       0.83427500
   142  H          0.61547200       0.91551400       0.33427500
   143  H          0.11547200       0.58448600       0.66572500
   144  H          0.38452800       0.41551400       0.16572500
   145  H          0.86302500       0.04899900       0.73765900
   146  H          0.63697500       0.95100100       0.23765900
   147  H          0.13697500       0.54899900       0.76234100
   148  H          0.36302500       0.45100100       0.26234100
   149  O          0.59701110       0.57300110       0.47449900
   150  O          0.90298890       0.42699890       0.97449900
   151  O          0.40298890       0.07300110       0.02550100
   152  O          0.09701110       0.92699890       0.52550100
   153  H          0.53630000       0.52230000       0.50491900
   154  H          0.96370000       0.47770000       0.00491900
   155  H          0.46370000       0.02230000      -0.00491900
   156  H          0.03630000       0.97770000       0.49508100
   157  O          0.59129120       0.67016130       0.59350900
   158  O          0.90870880       0.32983870       0.09350900
   159  O          0.40870880       0.17016130       0.90649100
   160  O          0.09129120       0.82983870       0.40649100
   161  N          0.73520120       0.80996120       0.53946900
   162  N          0.76479880       0.19003880       0.03946900
   163  N          0.26479880       0.30996120       0.96053100
   164  N          0.23520120       0.69003880       0.46053100
   165  H          0.71088900       0.79543100       0.59256800
   166  H          0.78911100       0.20456900       0.09256800
   167  H          0.28911100       0.29543100       0.90743200
   168  H          0.21088900       0.70456900       0.40743200
   169  H          0.70717400       0.87260100       0.52232100
   170  H          0.79282600       0.12739900       0.02232100
   171  H          0.29282600       0.37260100       0.97767900
   172  H          0.20717400       0.62739900       0.47767900
   173  C          0.62405140       0.65203150       0.52239120
   174  C          0.87594860       0.34796850       0.02239120
   175  C          0.37594860       0.15203150       0.97760880
   176  C          0.12405140       0.84796850       0.47760880
   177  C          0.70412130       0.72371140       0.47926110
   178  C          0.79587870       0.27628860       0.97926110
   179  C          0.29587870       0.22371140       0.02073890
   180  C          0.20412130       0.77628860       0.52073890
   181  H          0.67196800       0.75531100       0.42712700
   182  H          0.82803200       0.24468900       0.92712700
   183  H          0.32803200       0.25531100       0.07287300
   184  H          0.17196800       0.74468900       0.57287300
   185  C          0.80835150       0.66840150       0.45588130
   186  C          0.69164850       0.33159850       0.95588130
   187  C          0.19164850       0.16840150       0.04411870
   188  C          0.30835150       0.83159850       0.54411870
   189  H          0.79930900       0.59077100       0.45466000
   190  H          0.70069100       0.40922900       0.95466000
   191  H          0.20069100       0.09077100       0.04534000
   192  H          0.29930900       0.90922900       0.54534000
   193  H          0.83420700       0.69234800       0.39976900
   194  H          0.66579300       0.30765200       0.89976900
   195  H          0.16579300       0.19234800       0.10023100
   196  H          0.33420700       0.80765200       0.60023100
   197  C          0.88370150       0.70100180       0.52581130
   198  C          0.61629850       0.29899820       0.02581130
   199  C          0.11629850       0.20100180       0.97418870
   200  C          0.38370150       0.79899820       0.47418870
   201  H          0.95822100       0.69416000       0.50751200
   202  H          0.54177900       0.30584000       0.00751200
   203  H          0.04177900       0.19416000      -0.00751200
   204  H          0.45822100       0.80584000       0.49248800
   205  H          0.87253800       0.65858400       0.57784600
   206  H          0.62746200       0.34141600       0.07784600
   207  H          0.12746200       0.15858400       0.92215400
   208  H          0.37253800       0.84141600       0.42215400
   209  C          0.85358150       0.81604160       0.53974120
   210  C          0.64641850       0.18395840       0.03974120
   211  C          0.14641850       0.31604160       0.96025880
   212  C          0.35358150       0.68395840       0.46025880
   213  H          0.88065600       0.84270700       0.59467900
   214  H          0.61934400       0.15729300       0.09467900
   215  H          0.11934400       0.34270700       0.90532100
   216  H          0.38065600       0.65729300       0.40532100
   217  H          0.88005900       0.86154200       0.49326900
   218  H          0.61994100       0.13845800      -0.00673100
   219  H          0.11994100       0.36154200       0.00673100
   220  H          0.38005900       0.63845800       0.50673100
   221  O          0.47103100       0.44586110       0.53885800
   222  O          0.02896900       0.55413890       0.03885800
   223  O          0.52896900       0.94586110       0.96114200
   224  O          0.97103100       0.05413890       0.46114200
   225  O          0.38804120       0.44473120       0.41314800
   226  O          0.11195880       0.55526880       0.91314800
   227  O          0.61195880       0.94473120       0.08685200
   228  O          0.88804120       0.05526880       0.58685200
   229  N          0.24043110       0.30585130       0.46066900
   230  N          0.25956890       0.69414870       0.96066900
   231  N          0.75956890       0.80585130       0.03933100
   232  N          0.74043110       0.19414870       0.53933100
   233  H          0.27151800       0.29298400       0.40959900
   234  H          0.22848200       0.70701600       0.90959900
   235  H          0.72848200       0.79298400       0.09040100
   236  H          0.77151800       0.20701600       0.59040100
   237  H          0.19083700       0.35718100       0.45385400
   238  H          0.30916300       0.64281900       0.95385400
   239  H          0.80916300       0.85718100       0.04614600
   240  H          0.69083700       0.14281900       0.54614600
   241  C          0.39828130       0.41601140       0.48663110
   242  C          0.10171870       0.58398860       0.98663110
   243  C          0.60171870       0.91601140       0.01336890
   244  C          0.89828130       0.08398860       0.51336890
   245  C          0.32059130       0.33828130       0.52461100
   246  C          0.17940870       0.66171870       0.02461100
   247  C          0.67940870       0.83828130       0.97538900
   248  C          0.82059130       0.16171870       0.47538900
   249  H          0.28395800       0.37228100       0.57377200
   250  H          0.21604200       0.62771900       0.07377200
   251  H          0.71604200       0.87228100       0.92622800
   252  H          0.78395800       0.12771900       0.42622800
   253  C          0.36888160       0.23356140       0.55364120
   254  C          0.13111840       0.76643860       0.05364120
   255  C          0.63111840       0.73356140       0.94635880
   256  C          0.86888160       0.26643860       0.44635880
   257  H          0.38970100       0.23728100       0.61415200
   258  H          0.11029900       0.76271900       0.11415200
   259  H          0.61029900       0.73728100       0.88584800
   260  H          0.88970100       0.26271900       0.38584800
   261  H          0.43201600       0.21609400       0.51928900
   262  H          0.06798400       0.78390600       0.01928900
   263  H          0.56798400       0.71609400       0.98071100
   264  H          0.93201600       0.28390600       0.48071100
   265  C          0.28184180       0.15066160       0.54054140
   266  C          0.21815820       0.84933840       0.04054140
   267  C          0.71815820       0.65066160       0.95945860
   268  C          0.78184180       0.34933840       0.45945860
   269  H          0.30828700       0.09141200       0.50546700
   270  H          0.19171300       0.90858800       0.00546700
   271  H          0.69171300       0.59141200      -0.00546700
   272  H          0.80828700       0.40858800       0.49453300
   273  H          0.25773400       0.12233600       0.59583100
   274  H          0.24226600       0.87766400       0.09583100
   275  H          0.74226600       0.62233600       0.90416900
   276  H          0.75773400       0.37766400       0.40416900
   277  C          0.19157150       0.20754160       0.49534140
   278  C          0.30842850       0.79245840      -0.00465860
   279  C          0.80842850       0.70754160       0.00465860
   280  C          0.69157150       0.29245840       0.50465860
   281  H          0.16248700       0.16339600       0.44902900
   282  H          0.33751300       0.83660400       0.94902900
   283  H          0.83751300       0.66339600       0.05097100
   284  H          0.66248700       0.33660400       0.55097100
   285  H          0.13405800       0.22476500       0.53563700
   286  H          0.36594200       0.77523500       0.03563700
   287  H          0.86594200       0.72476500       0.96436300
   288  H          0.63405800       0.27523500       0.46436300
