data_CAGNOR01
_symmetry_space_group_name_H-M    'P1'
_symmetry_Int_Tables_number       1
loop_
_symmetry_equiv_pos_site_id
_symmetry_equiv_pos_as_xyz
1 x,y,z
_cell_length_a                   7.365701
_cell_length_b                   11.57112
_cell_length_c                   12.21723
_cell_angle_alpha                76.4242
_cell_angle_beta                 89.1192
_cell_angle_gamma                79.8952
loop_
_atom_site_label
_atom_site_type_symbol
_atom_site_fract_x
_atom_site_fract_y
_atom_site_fract_z
     1  I          0.94059700       0.68909200       0.35035200
     2  I          0.05940300       0.31090800       0.64964800
     3  N          0.38887000       0.82122000       0.43812000
     4  N          0.61113000       0.17878000       0.56188000
     5  C          0.55446000       0.80803000       0.38893000
     6  C          0.44554000       0.19197000       0.61107000
     7  H          0.57995300       0.86746000       0.32533200
     8  H          0.42004700       0.13254000       0.67466800
     9  C          0.68656000       0.70713000       0.43203000
    10  C          0.31344000       0.29287000       0.56797000
    11  C          0.64606000       0.61983000       0.52213000
    12  C          0.35394000       0.38017000       0.47787000
    13  H          0.73463300       0.54917200       0.55119300
    14  H          0.26536700       0.45082800       0.44880700
    15  C          0.47576000       0.63613000       0.56953000
    16  C          0.52424000       0.36387000       0.43047000
    17  H          0.44644800       0.57678100       0.63211700
    18  H          0.55355200       0.42321900       0.36788300
    19  C          0.34766000       0.73813000       0.52643000
    20  C          0.65234000       0.26187000       0.47357000
    21  H          0.23023300       0.74944600       0.55941200
    22  H          0.76976700       0.25055400       0.44058800
    23  C          0.24466000       0.92843000       0.38643000
    24  C          0.75534000       0.07157000       0.61357000
    25  H          0.23892900       0.93699900       0.30393900
    26  H          0.76107100       0.06300100       0.69606100
    27  H          0.12284600       0.91410100       0.41635100
    28  H          0.87715400       0.08589900       0.58364900
    29  C          0.28236000       0.04323000       0.40963000
    30  C          0.71764000       0.95677000       0.59037000
    31  H          0.18480700       0.11013200       0.37421800
    32  H          0.81519300       0.88986800       0.62578200
    33  H          0.28555400       0.03597900       0.49113800
    34  H          0.71444600       0.96402100       0.50886200
    35  H          0.40166200       0.05888100       0.37870100
    36  H          0.59833800       0.94111900       0.62129900
    37  I          0.34636300       0.67329200       0.19581200
    38  I          0.65363700       0.32670800       0.80418800
    39  I          0.74476200       0.48165200       0.13935200
    40  I          0.25523800       0.51834800       0.86064800
    41  N          0.18143000       0.22842000       0.04312000
    42  N          0.81857000       0.77158000       0.95688000
    43  C          0.01614000       0.29492000       0.05472000
    44  C          0.98386000       0.70508000       0.94528000
    45  H          0.91033200       0.28689400       0.01553900
    46  H          0.08966800       0.71310600       0.98446100
    47  C          0.00104000       0.37512000       0.12412000
    48  C         -0.00104000       0.62488000       0.87588000
    49  C          0.15594000       0.38413000       0.18233000
    50  C          0.84406000       0.61587000       0.81767000
    51  H          0.14721000       0.43776200       0.23100600
    52  H          0.85279000       0.56223800       0.76899400
    53  C          0.32304000       0.31413000       0.16863000
    54  C          0.67696000       0.68587000       0.83137000
    55  H          0.43021200       0.31927400       0.20806000
    56  H          0.56978800       0.68072600       0.79194000
    57  C          0.33384000       0.23763000       0.09843000
    58  C          0.66616000       0.76237000       0.90157000
    59  H          0.44928200       0.19038400       0.08828000
    60  H          0.55071800       0.80961600       0.91172000
    61  C          0.19914000       0.14093000       0.96977000
    62  C          0.80086000       0.85907000       0.03023000
    63  H          0.30221500       0.15357900       0.91789900
    64  H          0.69778500       0.84642100       0.08210100
    65  H          0.08434900       0.15467000       0.92387000
    66  H          0.91565100       0.84533000       0.07613000
    67  C          0.23464000       0.01253000       0.04113000
    68  C          0.76536000       0.98747000       0.95887000
    69  H          0.24602900       0.95586100      -0.00801400
    70  H          0.75397100       0.04413900       0.00801400
    71  H          0.34915800      -0.00120900       0.08570900
    72  H          0.65084200       0.00120900       0.91429100
    73  H          0.13168700      -0.00011900       0.09166900
    74  H          0.86831300       0.00011900       0.90833100
    75  I          0.78366300       0.08637200       0.25208200
    76  I          0.21633700       0.91362800       0.74791800
