data_CAGNOR
_symmetry_space_group_name_H-M    'P1'
_symmetry_Int_Tables_number       1
loop_
_symmetry_equiv_pos_site_id
_symmetry_equiv_pos_as_xyz
1 x,y,z
_cell_length_a                   7.881201
_cell_length_b                   12.11852
_cell_length_c                   10.29712
_cell_angle_alpha                90.0
_cell_angle_beta                 91.8922
_cell_angle_gamma                90.0
loop_
_atom_site_label
_atom_site_type_symbol
_atom_site_fract_x
_atom_site_fract_y
_atom_site_fract_z
     1  I          0.22261200       0.59654200       0.50300200
     2  I          0.27738800       0.09654200      -0.00300200
     3  I          0.77738800       0.40345800       0.49699800
     4  I          0.72261200       0.90345800       0.00300200
     5  N          0.31733000       0.24753180       0.47402000
     6  N          0.18267000       0.74753180       0.02598000
     7  N          0.68267000       0.75246820       0.52598000
     8  N          0.81733000       0.25246820       0.97402000
     9  C          0.28833000       0.43922000       0.43153000
    10  C          0.21167000       0.93922000       0.06847000
    11  C          0.71167000       0.56078000       0.56847000
    12  C          0.78833000       0.06078000       0.93153000
    13  C          0.27493000       0.34932000       0.51453000
    14  C          0.22507000       0.84932000       0.98547000
    15  C          0.72507000       0.65068000       0.48547000
    16  C          0.77493000       0.15068000       0.01453000
    17  H          0.23578100       0.35969700       0.59990100
    18  H          0.26421900       0.85969700       0.90009900
    19  H          0.76421900       0.64030300       0.40009900
    20  H          0.73578100       0.14030300       0.09990100
    21  C          0.34463000       0.42392000       0.30693000
    22  C          0.15537000       0.92392000       0.19307000
    23  C          0.65537000       0.57608000       0.69307000
    24  C          0.84463000       0.07608000       0.80693000
    25  H          0.35499400       0.48476600       0.24956200
    26  H          0.14500600       0.98476600       0.25043800
    27  H          0.64500600       0.51523400       0.75043800
    28  H          0.85499400       0.01523400       0.74956200
    29  C          0.38544000       0.31802000       0.26743000
    30  C          0.11456000       0.81802000       0.23257000
    31  C          0.61456000       0.68198000       0.73257000
    32  C          0.88544000       0.18198000       0.76743000
    33  H          0.42347000       0.30566900       0.18197000
    34  H          0.07653000       0.80566900       0.31803000
    35  H          0.57653000       0.69433100       0.81803000
    36  H          0.92347000       0.19433100       0.68197000
    37  C          0.30424000       0.15192000       0.56353000
    38  C          0.19576000       0.65192000       0.93647000
    39  C          0.69576000       0.84808000       0.43647000
    40  C          0.80424000       0.34808000       0.06353000
    41  H          0.25369000       0.08847400       0.51547700
    42  H          0.24631000       0.58847400       0.98452300
    43  H          0.74631000       0.91152600       0.48452300
    44  H          0.75369000       0.41152600       0.01547700
    45  H          0.22789700       0.17115000       0.63453500
    46  H          0.27210300       0.67115000       0.86546500
    47  H          0.77210300       0.82885000       0.36546500
    48  H          0.72789700       0.32885000       0.13453500
    49  C          0.47544000       0.11912000       0.62083000
    50  C          0.02456000       0.61912000       0.87917000
    51  C          0.52456000       0.88088000       0.37917000
    52  C          0.97544000       0.38088000       0.12083000
    53  H          0.55288400       0.10357600       0.55052900
    54  H          0.94711600       0.60357600       0.94947100
    55  H          0.44711600       0.89642400       0.44947100
    56  H          0.05288400       0.39642400       0.05052900
    57  H          0.46330500       0.05293800       0.67438800
    58  H          0.03669500       0.55293800       0.82561200
    59  H          0.53669500       0.94706200       0.32561200
    60  H          0.96330500       0.44706200       0.17438800
    61  H          0.52131100       0.17949300       0.67458300
    62  H          0.97868900       0.67949300       0.82541700
    63  H          0.47868900       0.82050700       0.32541700
    64  H          0.02131100       0.32050700       0.17458300
    65  C          0.37094000       0.23082000       0.35183000
    66  C          0.12906000       0.73082000       0.14817000
    67  C          0.62906000       0.76918000       0.64817000
    68  C          0.87094000       0.26918000       0.85183000
    69  H          0.39859000       0.15839200       0.32425000
    70  H          0.10141000       0.65839200       0.17575000
    71  H          0.60141000       0.84160800       0.67575000
    72  H          0.89859000       0.34160800       0.82425000
    73  I          0.12742200       0.85602200       0.62389200
    74  I          0.37257800       0.35602200       0.87610800
    75  I          0.87257800       0.14397800       0.37610800
    76  I          0.62742200       0.64397800       0.12389200
