data_CAGNOR02
_symmetry_space_group_name_H-M    'P1'
_symmetry_Int_Tables_number       1
loop_
_symmetry_equiv_pos_site_id
_symmetry_equiv_pos_as_xyz
1 x,y,z
_cell_length_a                   7.28582
_cell_length_b                   13.70313
_cell_length_c                   10.26693
_cell_angle_alpha                90.0
_cell_angle_beta                 92.2582
_cell_angle_gamma                90.0
loop_
_atom_site_label
_atom_site_type_symbol
_atom_site_fract_x
_atom_site_fract_y
_atom_site_fract_z
     1  I          0.90136300       0.64225200       0.88568200
     2  I          0.59863700       0.14225200       0.61431800
     3  I          0.09863700       0.35774800       0.11431800
     4  I          0.40136300       0.85774800       0.38568200
     5  N          0.37844000       0.57142000       0.70233000
     6  N          0.12156000       0.07142000       0.79767000
     7  N          0.62156000       0.42858000       0.29767000
     8  N          0.87844000       0.92858000       0.20233000
     9  C          0.53585000       0.61533000       0.74114000
    10  C          0.96415000       0.11533000       0.75886000
    11  C          0.46415000       0.38467000       0.25886000
    12  C          0.03585000       0.88467000       0.24114000
    13  H          0.56244100       0.67891400       0.71022800
    14  H          0.93755900       0.17891400       0.78977200
    15  H          0.43755900       0.32108600       0.28977200
    16  H          0.06244100       0.82108600       0.21022800
    17  C          0.65945000       0.56883000       0.82544000
    18  C          0.84055000       0.06883000       0.67456000
    19  C          0.34055000       0.43117000       0.17456000
    20  C          0.15945000       0.93117000       0.32544000
    21  C          0.62035000       0.47533000       0.86774000
    22  C          0.87965000       0.97533000       0.63226000
    23  C          0.37965000       0.52467000       0.13226000
    24  C          0.12035000       0.02467000       0.36774000
    25  H          0.70494200       0.44153000       0.92417300
    26  H          0.79505800       0.94153000       0.57582700
    27  H          0.29505800       0.55847000       0.07582700
    28  H          0.20494200       0.05847000       0.42417300
    29  C          0.45675000       0.43173000       0.82674000
    30  C          0.04325000       0.93173000       0.67326000
    31  C          0.54325000       0.56827000       0.17326000
    32  C          0.95675000       0.06827000       0.32674000
    33  H          0.42761700       0.36778000       0.85537600
    34  H          0.07238300       0.86778000       0.64462400
    35  H          0.57238300       0.63222000       0.14462400
    36  H          0.92761700       0.13222000       0.35537600
    37  C          0.33745000       0.48113000       0.74494000
    38  C          0.16255000       0.98113000       0.75506000
    39  C          0.66255000       0.51887000       0.25506000
    40  C          0.83745000       0.01887000       0.24494000
    41  H          0.22428800       0.45159300       0.71757900
    42  H          0.27571200       0.95159300       0.78242100
    43  H          0.77571200       0.54840700       0.28242100
    44  H          0.72428800       0.04840700       0.21757900
    45  C          0.25185000       0.62073000       0.60594000
    46  C          0.24815000       0.12073000       0.89406000
    47  C          0.74815000       0.37927000       0.39406000
    48  C          0.75185000       0.87927000       0.10594000
    49  H          0.27454700       0.69188000       0.60819200
    50  H          0.22545300       0.19188000       0.89180800
    51  H          0.72545300       0.30812000       0.39180800
    52  H          0.77454700       0.80812000       0.10819200
    53  H          0.12318200       0.60920700       0.62958500
    54  H          0.37681800       0.10920700       0.87041500
    55  H          0.87681800       0.39079300       0.37041500
    56  H          0.62318200       0.89079300       0.12958500
    57  C          0.27895000       0.58293000       0.47024000
    58  C          0.22105000       0.08293000       0.02976000
    59  C          0.72105000       0.41707000       0.52976000
    60  C          0.77895000       0.91707000       0.97024000
    61  H          0.19417600       0.61640200       0.40861200
    62  H          0.30582400       0.11640200       0.09138800
    63  H          0.80582400       0.38359800       0.59138800
    64  H          0.69417600       0.88359800       0.90861200
    65  H          0.40569700       0.59517100       0.44610700
    66  H          0.09430300       0.09517100       0.05389300
    67  H          0.59430300       0.40482900       0.55389300
    68  H          0.90569700       0.90482900       0.94610700
    69  H          0.25450600       0.51259200       0.46747600
    70  H          0.24549400       0.01259200       0.03252400
    71  H          0.74549400       0.48740800       0.53252400
    72  H          0.75450600       0.98740800       0.96747600
    73  I          0.30180300       0.77123200       0.96293200
    74  I          0.19819700       0.27123200       0.53706800
    75  I          0.69819700       0.22876800       0.03706800
    76  I          0.80180300       0.72876800       0.46293200
