data_CAPLAC
_symmetry_space_group_name_H-M    'P1'
_symmetry_Int_Tables_number       1
loop_
_symmetry_equiv_pos_site_id
_symmetry_equiv_pos_as_xyz
1 x,y,z
_cell_length_a                   19.282
_cell_length_b                   7.781
_cell_length_c                   9.571
_cell_angle_alpha                90.0
_cell_angle_beta                 112.391
_cell_angle_gamma                90.0
loop_
_atom_site_label
_atom_site_type_symbol
_atom_site_fract_x
_atom_site_fract_y
_atom_site_fract_z
     1  C          0.34280000       0.16050000       0.18140000
     2  C          0.84280000       0.66050000       0.18140000
     3  C          0.65720000       0.16050000       0.31860000
     4  C          0.15720000       0.66050000       0.31860000
     5  C          0.65720000       0.83950000       0.81860000
     6  C          0.15720000       0.33950000       0.81860000
     7  C          0.34280000       0.83950000       0.68140000
     8  C          0.84280000       0.33950000       0.68140000
     9  C          0.40940000       0.09920000       0.31430000
    10  C          0.90940000       0.59920000       0.31430000
    11  C          0.59060000       0.09920000       0.18570000
    12  C          0.09060000       0.59920000       0.18570000
    13  C          0.59060000       0.90080000       0.68570000
    14  C          0.09060000       0.40080000       0.68570000
    15  C          0.40940000       0.90080000       0.81430000
    16  C          0.90940000       0.40080000       0.81430000
    17  C          0.45730000       0.24400000       0.40940000
    18  C          0.95730000       0.74400000       0.40940000
    19  C          0.54270000       0.24400000       0.09060000
    20  C          0.04270000       0.74400000       0.09060000
    21  C          0.54270000       0.75600000       0.59060000
    22  C          0.04270000       0.25600000       0.59060000
    23  C          0.45730000       0.75600000       0.90940000
    24  C          0.95730000       0.25600000       0.90940000
    25  C          0.42750000       0.32000000       0.52210000
    26  C          0.92750000       0.82000000       0.52210000
    27  C          0.57250000       0.32000000       0.97790000
    28  C          0.07250000       0.82000000       0.97790000
    29  C          0.57250000       0.68000000       0.47790000
    30  C          0.07250000       0.18000000       0.47790000
    31  C          0.42750000       0.68000000       0.02210000
    32  C          0.92750000       0.18000000       0.02210000
    33  C          0.35110000       0.40690000       0.45130000
    34  C          0.85110000       0.90690000       0.45130000
    35  C          0.64890000       0.40690000       0.04870000
    36  C          0.14890000       0.90690000       0.04870000
    37  C          0.64890000       0.59310000       0.54870000
    38  C          0.14890000       0.09310000       0.54870000
    39  C          0.35110000       0.59310000       0.95130000
    40  C          0.85110000       0.09310000       0.95130000
    41  C          0.28920000       0.28800000       0.35670000
    42  C          0.78920000       0.78800000       0.35670000
    43  C          0.71080000       0.28800000       0.14330000
    44  C          0.21080000       0.78800000       0.14330000
    45  C          0.71080000       0.71200000       0.64330000
    46  C          0.21080000       0.21200000       0.64330000
    47  C          0.28920000       0.71200000       0.85670000
    48  C          0.78920000       0.21200000       0.85670000
    49  H          0.39400000       0.02100000       0.37900000
    50  H          0.89400000       0.52100000       0.37900000
    51  H          0.60600000       0.02100000       0.12100000
    52  H          0.10600000       0.52100000       0.12100000
    53  H          0.60600000       0.97900000       0.62100000
    54  H          0.10600000       0.47900000       0.62100000
    55  H          0.39400000       0.97900000       0.87900000
    56  H          0.89400000       0.47900000       0.87900000
    57  H          0.23400000       0.34600000       0.32700000
    58  H          0.73400000       0.84600000       0.32700000
    59  H          0.76600000       0.34600000       0.17300000
    60  H          0.26600000       0.84600000       0.17300000
    61  H          0.76600000       0.65400000       0.67300000
    62  H          0.26600000       0.15400000       0.67300000
    63  H          0.23400000       0.65400000       0.82700000
    64  H          0.73400000       0.15400000       0.82700000
    65  H          0.24100000       0.29300000       0.11800000
    66  H          0.74100000       0.79300000       0.11800000
    67  H          0.75900000       0.29300000       0.38200000
    68  H          0.25900000       0.79300000       0.38200000
    69  H          0.75900000       0.70700000       0.88200000
    70  H          0.25900000       0.20700000       0.88200000
    71  H          0.24100000       0.70700000       0.61800000
    72  H          0.74100000       0.20700000       0.61800000
    73  H          0.43800000       0.02500000       0.26600000
    74  H          0.93800000       0.52500000       0.26600000
    75  H          0.56200000       0.02500000       0.23400000
    76  H          0.06200000       0.52500000       0.23400000
    77  H          0.56200000       0.97500000       0.73400000
    78  H          0.06200000       0.47500000       0.73400000
    79  H          0.43800000       0.97500000       0.76600000
    80  H          0.93800000       0.47500000       0.76600000
    81  H          0.51400000       0.19400000       0.47000000
    82  H          0.01400000       0.69400000       0.47000000
    83  H          0.48600000       0.19400000       0.03000000
    84  H          0.98600000       0.69400000       0.03000000
    85  H          0.48600000       0.80600000       0.53000000
    86  H          0.98600000       0.30600000       0.53000000
    87  H          0.51400000       0.80600000       0.97000000
    88  H          0.01400000       0.30600000       0.97000000
    89  H          0.46300000       0.34200000       0.33300000
    90  H          0.96300000       0.84200000       0.33300000
    91  H          0.53700000       0.34200000       0.16700000
    92  H          0.03700000       0.84200000       0.16700000
    93  H          0.53700000       0.65800000       0.66700000
    94  H          0.03700000       0.15800000       0.66700000
    95  H          0.46300000       0.65800000       0.83300000
    96  H          0.96300000       0.15800000       0.83300000
    97  H          0.42200000       0.22200000       0.58900000
    98  H          0.92200000       0.72200000       0.58900000
    99  H          0.57800000       0.22200000       0.91100000
   100  H          0.07800000       0.72200000       0.91100000
   101  H          0.57800000       0.77800000       0.41100000
   102  H          0.07800000       0.27800000       0.41100000
   103  H          0.42200000       0.77800000       0.08900000
   104  H          0.92200000       0.27800000       0.08900000
   105  H          0.46800000       0.41400000       0.59300000
   106  H          0.96800000       0.91400000       0.59300000
   107  H          0.53200000       0.41400000       0.90700000
   108  H          0.03200000       0.91400000       0.90700000
   109  H          0.53200000       0.58600000       0.40700000
   110  H          0.03200000       0.08600000       0.40700000
   111  H          0.46800000       0.58600000       0.09300000
   112  H          0.96800000       0.08600000       0.09300000
   113  H          0.33800000       0.45400000       0.54000000
   114  H          0.83800000       0.95400000       0.54000000
   115  H          0.66200000       0.45400000       0.96000000
   116  H          0.16200000       0.95400000       0.96000000
   117  H          0.66200000       0.54600000       0.46000000
   118  H          0.16200000       0.04600000       0.46000000
   119  H          0.33800000       0.54600000       0.04000000
   120  H          0.83800000       0.04600000       0.04000000
   121  H          0.35700000       0.50800000       0.38800000
   122  H          0.85700000       0.00800000       0.38800000
   123  H          0.64300000       0.50800000       0.11200000
   124  H          0.14300000       0.00800000       0.11200000
   125  H          0.64300000       0.49200000       0.61200000
   126  H          0.14300000      -0.00800000       0.61200000
   127  H          0.35700000       0.49200000       0.88800000
   128  H          0.85700000      -0.00800000       0.88800000
   129  H          0.29000000       0.16700000       0.41600000
   130  H          0.79000000       0.66700000       0.41600000
   131  H          0.71000000       0.16700000       0.08400000
   132  H          0.21000000       0.66700000       0.08400000
   133  H          0.71000000       0.83300000       0.58400000
   134  H          0.21000000       0.33300000       0.58400000
   135  H          0.29000000       0.83300000       0.91600000
   136  H          0.79000000       0.33300000       0.91600000
   137  N          0.29040000       0.25080000       0.20710000
   138  N          0.79040000       0.75080000       0.20710000
   139  N          0.70960000       0.25080000       0.29290000
   140  N          0.20960000       0.75080000       0.29290000
   141  N          0.70960000       0.74920000       0.79290000
   142  N          0.20960000       0.24920000       0.79290000
   143  N          0.29040000       0.74920000       0.70710000
   144  N          0.79040000       0.24920000       0.70710000
   145  O          0.33720000       0.12880000       0.05040000
   146  O          0.83720000       0.62880000       0.05040000
   147  O          0.66280000       0.12880000       0.44960000
   148  O          0.16280000       0.62880000       0.44960000
   149  O          0.66280000       0.87120000       0.94960000
   150  O          0.16280000       0.37120000       0.94960000
   151  O          0.33720000       0.87120000       0.55040000
   152  O          0.83720000       0.37120000       0.55040000
