data_CAPLAC02
_symmetry_space_group_name_H-M    'P1'
_symmetry_Int_Tables_number       1
loop_
_symmetry_equiv_pos_site_id
_symmetry_equiv_pos_as_xyz
1 x,y,z
_cell_length_a                   8.424414
_cell_length_b                   6.84356
_cell_length_c                   9.6742
_cell_angle_alpha                90.0
_cell_angle_beta                 94.32215
_cell_angle_gamma                90.0
loop_
_atom_site_label
_atom_site_type_symbol
_atom_site_fract_x
_atom_site_fract_y
_atom_site_fract_z
     1  N          0.35886000       0.50765000       0.33119000
     2  N          0.64114000       0.00765000       0.16881000
     3  N          0.64114000       0.49235000       0.66881000
     4  N          0.35886000      -0.00765000       0.83119000
     5  H          0.39575200       0.43867100       0.26646200
     6  H          0.60424800       0.93867100       0.23353800
     7  H          0.60424800       0.56132900       0.73353800
     8  H          0.39575200       0.06132900       0.76646200
     9  O          0.58716000       0.68304000       0.34168000
    10  O          0.41284000       0.18304000       0.15832000
    11  O          0.41284000       0.31696000       0.65832000
    12  O          0.58716000       0.81696000       0.84168000
    13  C          0.45299000       0.65197000       0.38441300
    14  C          0.54701000       0.15197000       0.11558700
    15  C          0.54701000       0.34803000       0.61558700
    16  C          0.45299000       0.84803000       0.88441300
    17  C          0.20107000       0.45576000       0.37111100
    18  C          0.79893000       0.95576000       0.12888900
    19  C          0.79893000       0.54424000       0.62888900
    20  C          0.20107000       0.04424000       0.87111100
    21  H          0.20627600       0.43314900       0.47035400
    22  H          0.79372400       0.93314900       0.02964600
    23  H          0.79372400       0.56685100       0.52964600
    24  H          0.20627600       0.06685100       0.97035400
    25  H          0.16736200       0.33495700       0.32529700
    26  H          0.83263800       0.83495700       0.17470300
    27  H          0.83263800       0.66504300       0.67470300
    28  H          0.16736200       0.16504300       0.82529700
    29  C          0.08767000       0.78776000       0.42931000
    30  C          0.91233000       0.28776000       0.07069000
    31  C          0.91233000       0.21224000       0.57069000
    32  C          0.08767000       0.71224000       0.92931000
    33  H          0.06552700       0.74353500       0.52120500
    34  H          0.93447300       0.24353500       0.97879500
    35  H          0.93447300       0.25646500       0.47879500
    36  H          0.06552700       0.75646500       0.02120500
    37  H          0.00412900       0.87875200       0.39837500
    38  H         -0.00412900       0.37875200       0.10162500
    39  H         -0.00412900       0.12124800       0.60162500
    40  H          0.00412900       0.62124800       0.89837500
    41  C          0.38417000       0.77187000       0.49741200
    42  C          0.61583000       0.27187000       0.00258800
    43  C          0.61583000       0.22813000       0.50258800
    44  C          0.38417000       0.72813000      -0.00258800
    45  H          0.46653600       0.85538300       0.54056200
    46  H          0.53346400       0.35538300       0.95943800
    47  H          0.53346400       0.14461700       0.45943800
    48  H          0.46653600       0.64461700       0.04056200
    49  H          0.34869500       0.68464600       0.56792200
    50  H          0.65130500       0.18464600       0.93207800
    51  H          0.65130500       0.31535400       0.43207800
    52  H          0.34869500       0.81535400       0.06792200
    53  C          0.07807000       0.61436000       0.33371100
    54  C          0.92193000       0.11436000       0.16628900
    55  C          0.92193000       0.38564000       0.66628900
    56  C          0.07807000       0.88564000       0.83371100
    57  H          0.09147600       0.65902600       0.24015700
    58  H          0.90852400       0.15902600       0.25984300
    59  H          0.90852400       0.34097400       0.75984300
    60  H          0.09147600       0.84097400       0.74015700
    61  H          0.97249300       0.55757000       0.33416400
    62  H          0.02750700       0.05757000       0.16583600
    63  H          0.02750700       0.44243000       0.66583600
    64  H          0.97249300       0.94243000       0.83416400
    65  C          0.24457000       0.89756000       0.44101000
    66  C          0.75543000       0.39756000       0.05899000
    67  C          0.75543000       0.10244000       0.55899000
    68  C          0.24457000       0.60244000       0.94101000
    69  H          0.23510400       0.00927500       0.50158300
    70  H          0.76489600       0.50927500      -0.00158300
    71  H          0.76489600      -0.00927500       0.49841700
    72  H          0.23510400       0.49072500       0.00158300
    73  H          0.26619200       0.94629700       0.35021900
    74  H          0.73380800       0.44629700       0.14978100
    75  H          0.73380800       0.05370300       0.64978100
    76  H          0.26619200       0.55370300       0.85021900
