data_CAPLAC05
_symmetry_space_group_name_H-M    'P1'
_symmetry_Int_Tables_number       1
loop_
_symmetry_equiv_pos_site_id
_symmetry_equiv_pos_as_xyz
1 x,y,z
_cell_length_a                   11.079419
_cell_length_b                   6.04183
_cell_length_c                   9.66625
_cell_angle_alpha                90.0
_cell_angle_beta                 107.8969
_cell_angle_gamma                90.0
loop_
_atom_site_label
_atom_site_type_symbol
_atom_site_fract_x
_atom_site_fract_y
_atom_site_fract_z
     1  O          0.58844000       0.38232000       0.23434180
     2  O          0.41156000       0.88232000       0.26565820
     3  O          0.41156000       0.61768000       0.76565820
     4  O          0.58844000       0.11768000       0.73434180
     5  N          0.61755000       0.60443000       0.42662000
     6  N          0.38245000       0.10443000       0.07338000
     7  N          0.38245000       0.39557000       0.57338000
     8  N          0.61755000       0.89557000       0.92662000
     9  H          0.57249300       0.70335100       0.36964700
    10  H          0.42750700       0.20335100       0.13035300
    11  H          0.42750700       0.29664900       0.63035300
    12  H          0.57249300       0.79664900       0.86964700
    13  C          0.72269000       0.24944000       0.46104000
    14  C          0.27731000       0.74944000       0.03896000
    15  C          0.27731000       0.75056000       0.53896000
    16  C          0.72269000       0.25056000       0.96104000
    17  H          0.72208800       0.11612200       0.40487100
    18  H          0.27791200       0.61612200       0.09512900
    19  H          0.27791200       0.88387800       0.59512900
    20  H          0.72208800       0.38387800       0.90487100
    21  H          0.68894700       0.21151200       0.53948600
    22  H          0.31105300       0.71151200       0.96051400
    23  H          0.31105300       0.78848800       0.46051400
    24  H          0.68894700       0.28848800       0.03948600
    25  C          0.63826000       0.41553000       0.36623000
    26  C          0.36174000       0.91553000       0.13377000
    27  C          0.36174000       0.58447000       0.63377000
    28  C          0.63826000       0.08447000       0.86623000
    29  C          0.80741300       0.68488000       0.63865000
    30  C          0.19258700       0.18488000       0.86135000
    31  C          0.19258700       0.31512000       0.36135000
    32  C          0.80741300       0.81512000       0.13865000
    33  H          0.83396600       0.77564700       0.57039200
    34  H          0.16603400       0.27564700       0.92960800
    35  H          0.16603400       0.22435300       0.42960800
    36  H          0.83396600       0.72435300       0.07039200
    37  H          0.82859400       0.76435400       0.73008600
    38  H          0.17140600       0.26435400       0.76991400
    39  H          0.17140600       0.23564600       0.26991400
    40  H          0.82859400       0.73564600       0.23008600
    41  C          0.86078000       0.32905000       0.52663000
    42  C          0.13922000       0.82905000       0.97337000
    43  C          0.13922000       0.67095000       0.47337000
    44  C          0.86078000       0.17095000       0.02663000
    45  H          0.91584500       0.20078200       0.55111700
    46  H          0.08415500       0.70078200       0.94888300
    47  H          0.08415500       0.79921800       0.44888300
    48  H          0.91584500       0.29921800       0.05111700
    49  H          0.88460800       0.41303000       0.45354600
    50  H          0.11539200       0.91303000       0.04645400
    51  H          0.11539200       0.58697000       0.54645400
    52  H          0.88460800       0.08697000       0.95354600
    53  C          0.88236000       0.47224000       0.66213000
    54  C          0.11764000       0.97224000       0.83787000
    55  C          0.11764000       0.52776000       0.33787000
    56  C          0.88236000       0.02776000       0.16213000
    57  H          0.86061800       0.38624900       0.73584300
    58  H          0.13938200       0.88624900       0.76415700
    59  H          0.13938200       0.61375100       0.26415700
    60  H          0.86061800       0.11375100       0.23584300
    61  H          0.97179700       0.50803600       0.69943200
    62  H          0.02820300       0.00803600       0.80056800
    63  H          0.02820300       0.49196400       0.30056800
    64  H          0.97179700      -0.00803600       0.19943200
    65  C          0.66501400       0.65757000       0.58205000
    66  C          0.33498600       0.15757000       0.91795000
    67  C          0.33498600       0.34243000       0.41795000
    68  C          0.66501400       0.84243000       0.08205000
    69  H          0.64007200       0.54051500       0.63635500
    70  H          0.35992800       0.04051500       0.86364500
    71  H          0.35992800       0.45948500       0.36364500
    72  H          0.64007200       0.95948500       0.13635500
    73  H          0.62533800       0.79344500       0.59936500
    74  H          0.37466200       0.29344500       0.90063500
    75  H          0.37466200       0.20655500       0.40063500
    76  H          0.62533800       0.70655500       0.09936500
