data_CAVVUQ
_symmetry_space_group_name_H-M    'P1'
_symmetry_Int_Tables_number       1
loop_
_symmetry_equiv_pos_site_id
_symmetry_equiv_pos_as_xyz
1 x,y,z
_cell_length_a                   7.9946
_cell_length_b                   8.3717
_cell_length_c                   25.1422
_cell_angle_alpha                90.0
_cell_angle_beta                 90.0
_cell_angle_gamma                90.0
loop_
_atom_site_label
_atom_site_type_symbol
_atom_site_fract_x
_atom_site_fract_y
_atom_site_fract_z
     1  Cl        -0.00723000       0.70178000       0.95728600
     2  Cl         0.50723000       0.29822000       0.45728600
     3  Cl         0.49277000       0.79822000       0.04271400
     4  Cl         0.00723000       0.20178000       0.54271400
     5  Cl         0.00273000       0.80758000       0.07790600
     6  Cl         0.49727000       0.19242000       0.57790600
     7  Cl         0.50273000       0.69242000       0.92209400
     8  Cl        -0.00273000       0.30758000       0.42209400
     9  N          0.19996000       0.22936000       0.75582000
    10  N          0.30004000       0.77064000       0.25582000
    11  N          0.69996000       0.27064000       0.24418000
    12  N          0.80004000       0.72936000       0.74418000
    13  C          0.29638000       0.34077000       0.79212000
    14  C          0.20362000       0.65923000       0.29212000
    15  C          0.79638000       0.15923000       0.20788000
    16  C          0.70362000       0.84077000       0.70788000
    17  C          0.17187000       0.42247000       0.82962000
    18  C          0.32813000       0.57753000       0.32962000
    19  C          0.67187000       0.07753000       0.17038000
    20  C          0.82813000       0.92247000       0.67038000
    21  C          0.11117000       0.30607000       0.87272000
    22  C          0.38883000       0.69393000       0.37272000
    23  C          0.61117000       0.19393000       0.12728000
    24  C          0.88883000       0.80607000       0.62728000
    25  C          0.25897000       0.25136000       0.90732000
    26  C          0.24103000       0.74864000       0.40732000
    27  C          0.75897000       0.24864000       0.09268000
    28  C          0.74103000       0.75136000       0.59268000
    29  C          0.52598000       0.09857000       0.89722000
    30  C          0.97402000       0.90143000       0.39722000
    31  C          0.02598000       0.40143000       0.10278000
    32  C          0.47402000       0.59857000       0.60278000
    33  C          0.67598000       0.06548000       0.87053000
    34  C          0.82402000       0.93452000       0.37053000
    35  C          0.17598000       0.43452000       0.12947000
    36  C          0.32402000       0.56548000       0.62947000
    37  C          0.70628000       0.12718000       0.82032000
    38  C          0.79372000       0.87282000       0.32032000
    39  C          0.20628000       0.37282000       0.17968000
    40  C          0.29372000       0.62718000       0.67968000
    41  C          0.58398000       0.21917000       0.79612000
    42  C          0.91602000       0.78083000       0.29612000
    43  C          0.08398000       0.28083000       0.20388000
    44  C          0.41602000       0.71917000       0.70388000
    45  C          0.43037000       0.24827000       0.82182000
    46  C          0.06963000       0.75173000       0.32182000
    47  C          0.93037000       0.25173000       0.17818000
    48  C          0.56963000       0.74827000       0.67818000
    49  C          0.40687000       0.19316000       0.87372000
    50  C          0.09313000       0.80684000       0.37372000
    51  C          0.90687000       0.30684000       0.12628000
    52  C          0.59313000       0.69316000       0.62628000
    53  C          0.20207000       0.13347000       0.94942000
    54  C          0.29793000       0.86653000       0.44942000
    55  C          0.70207000       0.36653000       0.05058000
    56  C          0.79793000       0.63347000       0.55058000
    57  C          0.13498000      -0.01488000       0.93622000
    58  C          0.36502000       0.01488000       0.43622000
    59  C          0.63498000       0.51488000       0.06378000
    60  C          0.86502000       0.48512000       0.56378000
    61  C          0.07508000       0.88423000       0.97492000
    62  C          0.42492000       0.11577000       0.47492000
    63  C          0.57508000       0.61577000       0.02508000
    64  C          0.92492000       0.38423000       0.52508000
    65  C          0.08368000       0.92993000       0.02822000
    66  C          0.41632000       0.07007000       0.52822000
    67  C          0.58368000       0.57007000       0.97178000
    68  C          0.91632000       0.42993000       0.47178000
    69  C          0.15468000       0.07288000       0.04162000
    70  C          0.34532000       0.92712000       0.54162000
    71  C          0.65468000       0.42712000       0.95838000
    72  C          0.84532000       0.57288000       0.45838000
    73  C          0.21598000       0.17377000       0.00272000
    74  C          0.28402000       0.82623000       0.50272000
    75  C          0.71598000       0.32623000      -0.00272000
    76  C          0.78402000       0.67377000       0.49728000
    77  C          0.29248000       0.17698000       0.70652000
    78  C          0.20752000       0.82302000       0.20652000
    79  C          0.79248000       0.32302000       0.29348000
    80  C          0.70752000       0.67698000       0.79348000
    81  H          0.35295000       0.42188000       0.77202000
    82  H          0.14705000       0.57812000       0.27202000
    83  H          0.85295000       0.07812000       0.22798000
    84  H          0.64705000       0.92188000       0.72798000
    85  H          0.22544000       0.51185000       0.84633000
    86  H          0.27456000       0.48815000       0.34633000
    87  H          0.72544000      -0.01185000       0.15367000
    88  H          0.77456000       0.01185000       0.65367000
    89  H          0.07739000       0.45898000       0.80940000
    90  H          0.42261000       0.54102000       0.30940000
    91  H          0.57739000       0.04102000       0.19060000
    92  H          0.92261000       0.95898000       0.69060000
    93  H          0.02978000       0.35849000       0.89466000
    94  H          0.47022000       0.64151000       0.39466000
    95  H          0.52978000       0.14151000       0.10534000
    96  H          0.97022000       0.85849000       0.60534000
    97  H          0.06107000       0.21457000       0.85601000
    98  H          0.43893000       0.78543000       0.35601000
    99  H          0.56107000       0.28543000       0.14399000
   100  H          0.93893000       0.71457000       0.64399000
   101  H          0.30729000       0.34271000       0.92451000
   102  H          0.19271000       0.65729000       0.42451000
   103  H          0.80729000       0.15729000       0.07549000
   104  H          0.69271000       0.84271000       0.57549000
   105  H          0.50641000       0.05484000       0.93198000
   106  H         -0.00641000       0.94516000       0.43198000
   107  H          0.00641000       0.44516000       0.06802000
   108  H          0.49359000       0.55484000       0.56802000
   109  H          0.75870000      -0.00081000       0.88726000
   110  H          0.74130000       0.00081000       0.38726000
   111  H          0.25870000       0.50081000       0.11274000
   112  H          0.24130000       0.49919000       0.61274000
   113  H          0.81033000       0.10640000       0.80252000
   114  H          0.68967000       0.89360000       0.30252000
   115  H          0.31033000       0.39360000       0.19748000
   116  H          0.18967000       0.60640000       0.69748000
   117  H          0.60401000       0.26351000       0.76144000
   118  H          0.89599000       0.73649000       0.26144000
   119  H          0.10401000       0.23649000       0.23856000
   120  H          0.39599000       0.76351000       0.73856000
   121  H          0.13041000       0.95291000       0.89961000
   122  H          0.36959000       0.04709000       0.39961000
   123  H          0.63041000       0.54709000       0.10039000
   124  H          0.86959000       0.45291000       0.60039000
   125  H          0.16202000       0.10340000       0.07836000
   126  H          0.33798000       0.89660000       0.57836000
   127  H          0.66202000       0.39660000       0.92164000
   128  H          0.83798000       0.60340000       0.42164000
   129  H          0.26846000       0.27234000       0.01262000
   130  H          0.23154000       0.72766000       0.51262000
   131  H          0.76846000       0.22766000       0.98738000
   132  H          0.73154000       0.77234000       0.48738000
   133  H          0.22249000       0.10705000       0.68593000
   134  H          0.27751000       0.89295000       0.18593000
   135  H          0.72249000       0.39295000       0.31407000
   136  H          0.77751000       0.60705000       0.81407000
   137  H          0.32105000       0.26893000       0.68560000
   138  H          0.17895000       0.73107000       0.18560000
   139  H          0.82105000       0.23107000       0.31440000
   140  H          0.67895000       0.76893000       0.81440000
   141  H          0.39263000       0.12140000       0.71655000
   142  H          0.10737000       0.87860000       0.21655000
   143  H          0.89263000       0.37860000       0.28345000
   144  H          0.60737000       0.62140000       0.78345000
   145  H          0.17118000       0.13551000       0.77578000
   146  H          0.32882000       0.86449000       0.27578000
   147  H          0.67118000       0.36449000       0.22422000
   148  H          0.82882000       0.63551000       0.72422000
   149  H          0.09959000       0.28304000       0.74482000
   150  H          0.40041000       0.71696000       0.24482000
   151  H          0.59959000       0.21696000       0.25518000
   152  H          0.90041000       0.78304000       0.75518000
   153  Cl         0.10952000       0.88838000       0.79477600
   154  Cl         0.39048000       0.11162000       0.29477600
   155  Cl         0.60952000       0.61162000       0.20522400
   156  Cl         0.89048000       0.38838000       0.70522400
