data_CAVVUQ02
_symmetry_space_group_name_H-M    'P1'
_symmetry_Int_Tables_number       1
loop_
_symmetry_equiv_pos_site_id
_symmetry_equiv_pos_as_xyz
1 x,y,z
_cell_length_a                   8.0045
_cell_length_b                   8.3725
_cell_length_c                   25.212
_cell_angle_alpha                90.0
_cell_angle_beta                 90.0
_cell_angle_gamma                90.0
loop_
_atom_site_label
_atom_site_type_symbol
_atom_site_fract_x
_atom_site_fract_y
_atom_site_fract_z
     1  C          0.83492900       0.71051800       0.81679000
     2  C          0.66507100       0.28948200       0.31679000
     3  C          0.33492900       0.78948200       0.18321000
     4  C          0.16507100       0.21051800       0.68321000
     5  C          0.05912900       0.71722000       0.81591100
     6  C          0.44087100       0.28278000       0.31591100
     7  C          0.55912900       0.78278000       0.18408900
     8  C          0.94087100       0.21722000       0.68408900
     9  C          0.05943000       0.89461900       0.82991000
    10  C          0.44057000       0.10538100       0.32991000
    11  C          0.55943000       0.60538100       0.17009000
    12  C          0.94057000       0.39461900       0.67009000
    13  C         -0.01377000       0.90961800       0.88889000
    14  C          0.51377000       0.09038200       0.38889000
    15  C          0.48623000       0.59038200       0.11111000
    16  C          0.01377000       0.40961800       0.61111000
    17  C          0.79112700       0.84221600       0.89997000
    18  C          0.70887300       0.15778400       0.39997000
    19  C          0.29112700       0.65778400       0.10003000
    20  C          0.20887300       0.34221600       0.60003000
    21  C          0.67952900       0.86621800       0.94638000
    22  C          0.82047100       0.13378200       0.44638000
    23  C          0.17952900       0.63378200       0.05362000
    24  C          0.32047100       0.36621800       0.55362000
    25  C          0.51533000       0.79502000       0.96029000
    26  C         -0.01533000       0.20498000       0.46029000
    27  C          0.01533000       0.70498000       0.03971000
    28  C          0.48467000       0.29502000       0.53971000
    29  C          0.44243000       0.69981500       0.93037000
    30  C          0.05757000       0.30018500       0.43037000
    31  C          0.94243000       0.80018500       0.06963000
    32  C          0.55757000       0.19981500       0.56963000
    33  C          0.55583000       0.67221700       0.88249000
    34  C          0.94417000       0.32778300       0.38249000
    35  C          0.05583000       0.82778300       0.11751000
    36  C          0.44417000       0.17221700       0.61751000
    37  C          0.73572800       0.74121700       0.86829000
    38  C          0.76427200       0.25878300       0.36829000
    39  C          0.23572800       0.75878300       0.13171000
    40  C          0.26427200       0.24121700       0.63171000
    41  C         -0.01537200       0.05181700       0.89928000
    42  C          0.51537200       0.94818300       0.39928000
    43  C          0.48462800       0.44818300       0.10072000
    44  C          0.01537200       0.55181700       0.60072000
    45  C          0.82103100       0.12451600       0.87819000
    46  C          0.67896900       0.87548400       0.37819000
    47  C          0.32103100       0.37548400       0.12181000
    48  C          0.17896900       0.62451600       0.62181000
    49  C          0.84163200       0.25071900       0.89229000
    50  C          0.65836800       0.74928100       0.39229000
    51  C          0.34163200       0.24928100       0.10771000
    52  C          0.15836800       0.75071900       0.60771000
    53  C         -0.01357000       0.30101900       0.92611100
    54  C          0.51357000       0.69898100       0.42611100
    55  C          0.48643000       0.19898100       0.07388900
    56  C          0.01357000       0.80101900       0.57388900
    57  C          0.13963500       0.22951800       0.94271200
    58  C          0.36036500       0.77048200       0.44271200
    59  C          0.63963500       0.27048200       0.05728800
    60  C          0.86036500       0.72951800       0.55728800
    61  C          0.13173100       0.10291800       0.93221000
    62  C          0.36826900       0.89708200       0.43221000
    63  C          0.63173100       0.39708200       0.06779000
    64  C          0.86826900       0.60291800       0.56779000
    65  N          0.70722500       0.74491500       0.76836000
    66  N          0.79277500       0.25508500       0.26836000
    67  N          0.20722500       0.75508500       0.23164000
    68  N          0.29277500       0.24491500       0.73164000
    69  C          0.81493200       0.72952100       0.71479000
    70  C          0.68506800       0.27047900       0.21479000
    71  C          0.31493200       0.77047900       0.28521000
    72  C          0.18506800       0.22952100       0.78521000
    73  Cl         0.65861700       0.34087000       0.85705000
    74  Cl         0.84138300       0.65913000       0.35705000
    75  Cl         0.15861700       0.15913000       0.14295000
    76  Cl         0.34138300       0.84087000       0.64295000
    77  Cl         0.98111600       0.46056000       0.93123000
    78  Cl         0.51888400       0.53944000       0.43123000
    79  Cl         0.48111600       0.03944000       0.06877000
    80  Cl         0.01888400       0.96056000       0.56877000
    81  H          0.84270000       0.62240000       0.81350000
    82  H          0.65730000       0.37760000       0.31350000
    83  H          0.34270000       0.87760000       0.18650000
    84  H          0.15730000       0.12240000       0.68650000
    85  H          0.11840000       0.74520000       0.78080000
    86  H          0.38160000       0.25480000       0.28080000
    87  H          0.61840000       0.75480000       0.21920000
    88  H          0.88160000       0.24520000       0.71920000
    89  H          0.13900000       0.71260000       0.84210000
    90  H          0.36100000       0.28740000       0.34210000
    91  H          0.63900000       0.78740000       0.15790000
    92  H          0.86100000       0.21260000       0.65790000
    93  H          0.19750000       0.92680000       0.82610000
    94  H          0.30250000       0.07320000       0.32610000
    95  H          0.69750000       0.57320000       0.17390000
    96  H          0.80250000       0.42680000       0.67390000
    97  H          0.96720000       0.93800000       0.80620000
    98  H          0.53280000       0.06200000       0.30620000
    99  H          0.46720000       0.56200000       0.19380000
   100  H          0.03280000       0.43800000       0.69380000
   101  H          0.07790000       0.87240000       0.91450000
   102  H          0.42210000       0.12760000       0.41450000
   103  H          0.57790000       0.62760000       0.08550000
   104  H          0.92210000       0.37240000       0.58550000
   105  H          0.72060000       0.93340000       0.96910000
   106  H          0.77940000       0.06660000       0.46910000
   107  H          0.22060000       0.56660000       0.03090000
   108  H          0.27940000       0.43340000       0.53090000
   109  H          0.44460000       0.81400000       0.99320000
   110  H          0.05540000       0.18600000       0.49320000
   111  H          0.94460000       0.68600000       0.00680000
   112  H          0.55540000       0.31400000       0.50680000
   113  H          0.32240000       0.65300000       0.94080000
   114  H          0.17760000       0.34700000       0.44080000
   115  H          0.82240000       0.84700000       0.05920000
   116  H          0.67760000       0.15300000       0.55920000
   117  H          0.50980000       0.60640000       0.85940000
   118  H         -0.00980000       0.39360000       0.35940000
   119  H          0.00980000       0.89360000       0.14060000
   120  H          0.49020000       0.10640000       0.64060000
   121  H          0.70940000       0.09200000       0.85680000
   122  H          0.79060000       0.90800000       0.35680000
   123  H          0.20940000       0.40800000       0.14320000
   124  H          0.29060000       0.59200000       0.64320000
   125  H          0.25740000       0.26520000       0.96060000
   126  H          0.24260000       0.73480000       0.46060000
   127  H          0.75740000       0.23480000       0.03940000
   128  H          0.74260000       0.76520000       0.53940000
   129  H          0.22500000       0.04680000       0.94970000
   130  H          0.27500000       0.95320000       0.44970000
   131  H          0.72500000       0.45320000       0.05030000
   132  H          0.77500000       0.54680000       0.55030000
   133  H          0.58460000       0.69460000       0.76830000
   134  H          0.91540000       0.30540000       0.26830000
   135  H          0.08460000       0.80540000       0.23170000
   136  H          0.41540000       0.19460000       0.73170000
   137  H          0.66850000       0.83010000       0.77180000
   138  H          0.83150000       0.16990000       0.27180000
   139  H          0.16850000       0.66990000       0.22820000
   140  H          0.33150000       0.33010000       0.72820000
   141  H          0.91050000       0.66170000       0.71690000
   142  H          0.58950000       0.33830000       0.21690000
   143  H          0.41050000       0.83830000       0.28310000
   144  H          0.08950000       0.16170000       0.78310000
   145  H          0.88910000       0.80350000       0.70570000
   146  H          0.61090000       0.19650000       0.20570000
   147  H          0.38910000       0.69650000       0.29430000
   148  H          0.11090000       0.30350000       0.79430000
   149  H          0.71350000       0.71270000       0.68730000
   150  H          0.78650000       0.28730000       0.18730000
   151  H          0.21350000       0.78730000       0.31270000
   152  H          0.28650000       0.21270000       0.81270000
   153  Cl         0.41451100       0.52175000       0.74792000
   154  Cl         0.08548900       0.47825000       0.24792000
   155  Cl         0.91451100       0.97825000       0.25208000
   156  Cl         0.58548900       0.02175000       0.75208000
