data_CAVVUQ01
_symmetry_space_group_name_H-M    'P1'
_symmetry_Int_Tables_number       1
loop_
_symmetry_equiv_pos_site_id
_symmetry_equiv_pos_as_xyz
1 x,y,z
_cell_length_a                   7.2896
_cell_length_b                   7.3967
_cell_length_c                   32.663
_cell_angle_alpha                90.0
_cell_angle_beta                 90.0
_cell_angle_gamma                90.0
loop_
_atom_site_label
_atom_site_type_symbol
_atom_site_fract_x
_atom_site_fract_y
_atom_site_fract_z
     1  Cl         0.88930840       0.52445160       0.23080400
     2  Cl         0.61069160       0.47554840       0.73080400
     3  Cl         0.11069160       0.02445160       0.26919600
     4  Cl         0.38930840       0.97554840       0.76919600
     5  Cl         0.57964880       0.22432170       0.22326300
     6  Cl         0.92035120       0.77567830       0.72326300
     7  Cl         0.42035120       0.72432170       0.27673700
     8  Cl         0.07964880       0.27567830       0.77673700
     9  N          0.40103000       0.94917000       0.02078700
    10  N          0.09897000       0.05083000       0.52078700
    11  N          0.59897000       0.44917000       0.47921300
    12  N          0.90103000       0.55083000       0.97921300
    13  H          0.42460000       0.83020000       0.01830000
    14  H          0.07540000       0.16980000       0.51830000
    15  H          0.57540000       0.33020000       0.48170000
    16  H          0.92460000       0.66980000       0.98170000
    17  H          0.28030000       0.96170000       0.02580000
    18  H          0.21970000       0.03830000       0.52580000
    19  H          0.71970000       0.46170000       0.47420000
    20  H          0.78030000       0.53830000       0.97420000
    21  C          0.50764000       0.02284000       0.05695800
    22  C         -0.00764000       0.97716000       0.55695800
    23  C          0.49236000       0.52284000       0.44304200
    24  C          0.00764000       0.47716000       0.94304200
    25  H          0.63830000       0.01640000       0.05010000
    26  H          0.86170000      -0.01640000       0.55010000
    27  H          0.36170000       0.51640000       0.44990000
    28  H          0.13830000       0.48360000       0.94990000
    29  C          0.46125000       0.22124000       0.06517900
    30  C          0.03875000       0.77876000       0.56517900
    31  C          0.53875000       0.72124000       0.43482100
    32  C          0.96125000       0.27876000       0.93482100
    33  H          0.55730000       0.27500000       0.08170000
    34  H          0.94270000       0.72500000       0.58170000
    35  H          0.44270000       0.77500000       0.41830000
    36  H          0.05730000       0.22500000       0.91830000
    37  H          0.45590000       0.28610000       0.03940000
    38  H          0.04410000       0.71390000       0.53940000
    39  H          0.54410000       0.78610000       0.46060000
    40  H          0.95590000       0.21390000       0.96060000
    41  C          0.27915000       0.24004000       0.08716900
    42  C          0.22085000       0.75996000       0.58716900
    43  C          0.72085000       0.74004000       0.41283100
    44  C          0.77915000       0.25996000       0.91283100
    45  H          0.18330000       0.18200000       0.07130000
    46  H          0.31670000       0.81800000       0.57130000
    47  H          0.81670000       0.68200000       0.42870000
    48  H          0.68330000       0.31800000       0.92870000
    49  H          0.24830000       0.36700000       0.09000000
    50  H          0.25170000       0.63300000       0.59000000
    51  H          0.75170000       0.86700000       0.41000000
    52  H          0.74830000       0.13300000       0.91000000
    53  C          0.29054000       0.15284000       0.12940900
    54  C          0.20946000       0.84716000       0.62940900
    55  C          0.70946000       0.65284000       0.37059100
    56  C          0.79054000       0.34716000       0.87059100
    57  H          0.37870000       0.22530000       0.14500000
    58  H          0.12130000       0.77470000       0.64500000
    59  H          0.62130000       0.72530000       0.35500000
    60  H          0.87870000       0.27470000       0.85500000
    61  C          0.35934000       0.84756000       0.16192900
    62  C          0.14066000       0.15244000       0.66192900
    63  C          0.64066000       0.34756000       0.33807100
    64  C          0.85934000       0.65244000       0.83807100
    65  H          0.28860000       0.88310000       0.18420000
    66  H          0.21140000       0.11690000       0.68420000
    67  H          0.71140000       0.38310000       0.31580000
    68  H          0.78860000       0.61690000       0.81580000
    69  C          0.45125000       0.68305000       0.16338100
    70  C          0.04875000       0.31695000       0.66338100
    71  C          0.54875000       0.18305000       0.33661900
    72  C          0.95125000       0.81695000       0.83661900
    73  H          0.44180000       0.61040000       0.18650000
    74  H          0.05820000       0.38960000       0.68650000
    75  H          0.55820000       0.11040000       0.31350000
    76  H          0.94180000       0.88960000       0.81350000
    77  C          0.55585000       0.62775000       0.13082100
    78  C          0.94415000       0.37225000       0.63082100
    79  C          0.44415000       0.12775000       0.36917900
    80  C          0.05585000       0.87225000       0.86917900
    81  H          0.61860000       0.51850000       0.13180000
    82  H          0.88140000       0.48150000       0.63180000
    83  H          0.38140000       0.01850000       0.36820000
    84  H          0.11860000      -0.01850000       0.86820000
    85  C          0.56675000       0.73626000       0.09654900
    86  C          0.93325000       0.26374000       0.59654900
    87  C          0.43325000       0.23626000       0.40345100
    88  C          0.06675000       0.76374000       0.90345100
    89  H          0.63600000       0.69770000       0.07430000
    90  H          0.86400000       0.30230000       0.57430000
    91  H          0.36400000       0.19770000       0.42570000
    92  H          0.13600000       0.80230000       0.92570000
    93  C          0.47614000       0.90316000       0.09438800
    94  C          0.02386000       0.09684000       0.59438800
    95  C          0.52386000       0.40316000       0.40561200
    96  C          0.97614000       0.59684000       0.90561200
    97  C          0.37074000       0.96116000       0.12771800
    98  C          0.12926000       0.03884000       0.62771800
    99  C          0.62926000       0.46116000       0.37228200
   100  C          0.87074000       0.53884000       0.87228200
   101  C          0.10874000       0.16874000       0.15217900
   102  C          0.39126000       0.83126000       0.65217900
   103  C          0.89126000       0.66874000       0.34782100
   104  C          0.60874000       0.33126000       0.84782100
   105  C          0.08014000       0.31514000       0.17803900
   106  C          0.41986000       0.68486000       0.67803900
   107  C          0.91986000       0.81514000       0.32196100
   108  C          0.58014000       0.18486000       0.82196100
   109  H          0.17240000       0.40080000       0.18130000
   110  H          0.32760000       0.59920000       0.68130000
   111  H          0.82760000       0.90080000       0.31870000
   112  H          0.67240000       0.09920000       0.81870000
   113  C          0.91675000       0.33545000       0.19907900
   114  C          0.58325000       0.66455000       0.69907900
   115  C          0.08325000       0.83545000       0.30092100
   116  C          0.41675000       0.16455000       0.80092100
   117  C          0.78126000       0.20825000       0.19498900
   118  C          0.71874000       0.79175000       0.69498900
   119  C          0.21874000       0.70825000       0.30501100
   120  C          0.28126000       0.29175000       0.80501100
   121  C          0.80736000       0.06135000       0.16927110
   122  C          0.69264000       0.93865000       0.66927110
   123  C          0.19264000       0.56135000       0.33072890
   124  C          0.30736000       0.43865000       0.83072890
   125  H          0.71590000       0.97450000       0.16670000
   126  H          0.78410000       0.02550000       0.66670000
   127  H          0.28410000       0.47450000       0.33330000
   128  H          0.21590000       0.52550000       0.83330000
   129  C          0.96836000       0.04345000       0.14752100
   130  C          0.53164000       0.95655000       0.64752100
   131  C          0.03164000       0.54345000       0.35247900
   132  C          0.46836000       0.45655000       0.85247900
   133  H         -0.01690000       0.94680000       0.12960000
   134  H          0.51690000       0.05320000       0.62960000
   135  H          0.01690000       0.44680000       0.37040000
   136  H          0.48310000       0.55320000       0.87040000
   137  C          0.44486000       0.03915000       0.98153100
   138  C          0.05514000       0.96085000       0.48153100
   139  C          0.55514000       0.53915000       0.51846900
   140  C          0.94486000       0.46085000       0.01846900
   141  H          0.39790000       0.16040000       0.98190000
   142  H          0.10210000       0.83960000       0.48190000
   143  H          0.60210000       0.66040000       0.51810000
   144  H          0.89790000       0.33960000       0.01810000
   145  H          0.38940000       0.97320000       0.95940000
   146  H          0.11060000       0.02680000       0.45940000
   147  H          0.61060000       0.47320000       0.54060000
   148  H          0.88940000       0.52680000       0.04060000
   149  H          0.57540000       0.04190000       0.97780000
   150  H          0.92460000       0.95810000       0.47780000
   151  H          0.42460000       0.54190000       0.52220000
   152  H          0.07540000       0.45810000       0.02220000
   153  Cl         0.97345890       0.93271900       0.01830300
   154  Cl         0.52654110       0.06728100       0.51830300
   155  Cl         0.02654110       0.43271900       0.48169700
   156  Cl         0.47345890       0.56728100       0.98169700
