data_CBMZPN16
_symmetry_space_group_name_H-M    'P1'
_symmetry_Int_Tables_number       1
loop_
_symmetry_equiv_pos_site_id
_symmetry_equiv_pos_as_xyz
1 x,y,z
_cell_length_a                   9.12455
_cell_length_b                   10.45185
_cell_length_c                   24.822411
_cell_angle_alpha                90.0
_cell_angle_beta                 90.0
_cell_angle_gamma                90.0
loop_
_atom_site_label
_atom_site_type_symbol
_atom_site_fract_x
_atom_site_fract_y
_atom_site_fract_z
     1  O          0.35242160       0.18634170       0.53830600
     2  O          0.14757840       0.81365830       0.03830600
     3  O          0.85242160       0.31365830       0.46169400
     4  O          0.64757840       0.68634170       0.96169400
     5  O          0.64757840       0.81365830       0.46169400
     6  O          0.85242160       0.18634170       0.96169400
     7  O          0.14757840       0.68634170       0.53830600
     8  O          0.35242160       0.31365830       0.03830600
     9  N          0.55040190       0.11287190       0.58456600
    10  N          0.94959810       0.88712810       0.08456600
    11  N          0.05040190       0.38712810       0.41543400
    12  N          0.44959810       0.61287190       0.91543400
    13  N          0.44959810       0.88712810       0.41543400
    14  N          0.05040190       0.11287190       0.91543400
    15  N          0.94959810       0.61287190       0.58456600
    16  N          0.55040190       0.38712810       0.08456600
    17  N          0.57862000       0.22162000       0.50407800
    18  N          0.92138000       0.77838000       0.00407800
    19  N          0.07862000       0.27838000       0.49592200
    20  N          0.42138000       0.72162000      -0.00407800
    21  N          0.42138000       0.77838000       0.49592200
    22  N          0.07862000       0.22162000      -0.00407800
    23  N          0.92138000       0.72162000       0.50407800
    24  N          0.57862000       0.27838000       0.00407800
    25  C          0.45822000       0.06532000       0.62702800
    26  C          0.04178000       0.93468000       0.12702800
    27  C          0.95822000       0.43468000       0.37297200
    28  C          0.54178000       0.56532000       0.87297200
    29  C          0.54178000       0.93468000       0.37297200
    30  C          0.95822000       0.06532000       0.87297200
    31  C          0.04178000       0.56532000       0.62702800
    32  C          0.45822000       0.43468000       0.12702800
    33  C          0.45902000       0.12882000       0.67691800
    34  C          0.04098000       0.87118000       0.17691800
    35  C          0.95902000       0.37118000       0.32308200
    36  C          0.54098000       0.62882000       0.82308200
    37  C          0.54098000       0.87118000       0.32308200
    38  C          0.95902000       0.12882000       0.82308200
    39  C          0.04098000       0.62882000       0.67691800
    40  C          0.45902000       0.37118000       0.17691800
    41  C          0.79182000       0.02332000       0.56398900
    42  C          0.70818000       0.97668000       0.06398900
    43  C          0.29182000       0.47668000       0.43601100
    44  C          0.20818000       0.52332000       0.93601100
    45  C          0.20818000       0.97668000       0.43601100
    46  C          0.29182000       0.02332000       0.93601100
    47  C          0.70818000       0.52332000       0.56398900
    48  C          0.79182000       0.47668000       0.06398900
    49  H          0.74790000       0.96660000       0.53880000
    50  H          0.75210000       0.03340000       0.03880000
    51  H          0.24790000       0.53340000       0.46120000
    52  H          0.25210000       0.46660000       0.96120000
    53  H          0.25210000       0.03340000       0.46120000
    54  H          0.24790000       0.96660000       0.96120000
    55  H          0.75210000       0.46660000       0.53880000
    56  H          0.74790000       0.53340000       0.03880000
    57  C          0.37202000       0.95988000       0.61787100
    58  C          0.12798000       0.04012000       0.11787100
    59  C          0.87202000       0.54012000       0.38212900
    60  C          0.62798000       0.45988000       0.88212900
    61  C          0.62798000       0.04012000       0.38212900
    62  C          0.87202000       0.95988000       0.88212900
    63  C          0.12798000       0.45988000       0.61787100
    64  C          0.37202000       0.54012000       0.11787100
    65  H          0.37620000       0.91790000       0.58400000
    66  H          0.12380000       0.08210000       0.08400000
    67  H          0.87620000       0.58210000       0.41600000
    68  H          0.62380000       0.41790000       0.91600000
    69  H          0.62380000       0.08210000       0.41600000
    70  H          0.87620000       0.91790000       0.91600000
    71  H          0.12380000       0.41790000       0.58400000
    72  H          0.37620000       0.58210000       0.08400000
    73  C          0.70592000       0.10792000       0.59333800
    74  C          0.79408000       0.89208000       0.09333800
    75  C          0.20592000       0.39208000       0.40666200
    76  C          0.29408000       0.60792000       0.90666200
    77  C          0.29408000       0.89208000       0.40666200
    78  C          0.20592000       0.10792000       0.90666200
    79  C          0.79408000       0.60792000       0.59333800
    80  C          0.70592000       0.39208000       0.09333800
    81  C          0.67953000       0.27033000       0.66720900
    82  C          0.82047000       0.72967000       0.16720900
    83  C          0.17953000       0.22967000       0.33279100
    84  C          0.32047000       0.77033000       0.83279100
    85  C          0.32047000       0.72967000       0.33279100
    86  C          0.17953000       0.27033000       0.83279100
    87  C          0.82047000       0.77033000       0.66720900
    88  C          0.67953000       0.22967000       0.16720900
    89  H          0.71920000       0.35130000       0.67660000
    90  H          0.78080000       0.64870000       0.17660000
    91  H          0.21920000       0.14870000       0.32340000
    92  H          0.28080000       0.85130000       0.82340000
    93  H          0.28080000       0.64870000       0.32340000
    94  H          0.21920000       0.35130000       0.82340000
    95  H          0.78080000       0.85130000       0.67660000
    96  H          0.71920000       0.14870000       0.17660000
    97  C          0.76753000       0.19022000       0.63152800
    98  C          0.73247000       0.80978000       0.13152800
    99  C          0.26753000       0.30978000       0.36847200
   100  C          0.23247000       0.69022000       0.86847200
   101  C          0.23247000       0.80978000       0.36847200
   102  C          0.26753000       0.19022000       0.86847200
   103  C          0.73247000       0.69022000       0.63152800
   104  C          0.76753000       0.30978000       0.13152800
   105  C          0.92033000       0.19022000       0.63707900
   106  C          0.57967000       0.80978000       0.13707900
   107  C          0.42033000       0.30978000       0.36292100
   108  C          0.07967000       0.69022000       0.86292100
   109  C          0.07967000       0.80978000       0.36292100
   110  C          0.42033000       0.19022000       0.86292100
   111  C          0.57967000       0.69022000       0.63707900
   112  C          0.92033000       0.30978000       0.13707900
   113  H          0.96520000       0.24810000       0.66150000
   114  H          0.53480000       0.75190000       0.16150000
   115  H          0.46520000       0.25190000       0.33850000
   116  H          0.03480000       0.74810000       0.83850000
   117  H          0.03480000       0.75190000       0.33850000
   118  H          0.46520000       0.24810000       0.83850000
   119  H          0.53480000       0.74810000       0.66150000
   120  H          0.96520000       0.25190000       0.16150000
   121  C          0.94263000       0.02242000       0.57180900
   122  C          0.55737000       0.97758000       0.07180900
   123  C          0.44263000       0.47758000       0.42819100
   124  C          0.05737000       0.52242000       0.92819100
   125  C          0.05737000       0.97758000       0.42819100
   126  C          0.44263000       0.02242000       0.92819100
   127  C          0.55737000       0.52242000       0.57180900
   128  C          0.94263000       0.47758000       0.07180900
   129  H          0.00180000       0.96320000       0.55250000
   130  H          0.49820000       0.03680000       0.05250000
   131  H          0.50180000       0.53680000       0.44750000
   132  H         -0.00180000       0.46320000       0.94750000
   133  H         -0.00180000       0.03680000       0.44750000
   134  H          0.50180000       0.96320000       0.94750000
   135  H          0.49820000       0.46320000       0.55250000
   136  H          0.00180000       0.53680000       0.05250000
   137  C          0.54763000       0.24063000       0.68810900
   138  C          0.95237000       0.75937000       0.18810900
   139  C          0.04763000       0.25937000       0.31189100
   140  C          0.45237000       0.74063000       0.81189100
   141  C          0.45237000       0.75937000       0.31189100
   142  C          0.04763000       0.24063000       0.81189100
   143  C          0.95237000       0.74063000       0.68810900
   144  C          0.54763000       0.25937000       0.18810900
   145  H          0.50790000       0.30010000       0.71310000
   146  H         -0.00790000       0.69990000       0.21310000
   147  H          0.00790000       0.19990000       0.28690000
   148  H          0.49210000       0.80010000       0.78690000
   149  H          0.49210000       0.69990000       0.28690000
   150  H          0.00790000       0.30010000       0.78690000
   151  H         -0.00790000       0.80010000       0.71310000
   152  H          0.50790000       0.19990000       0.21310000
   153  C          0.48662000       0.17542000       0.54189800
   154  C          0.01338000       0.82458000       0.04189800
   155  C         -0.01338000       0.32458000       0.45810200
   156  C          0.51338000       0.67542000       0.95810200
   157  C          0.51338000       0.82458000       0.45810200
   158  C         -0.01338000       0.17542000       0.95810200
   159  C          0.01338000       0.67542000       0.54189800
   160  C          0.48662000       0.32458000       0.04189800
   161  C          0.00712000       0.10712000       0.60743800
   162  C          0.49288000       0.89288000       0.10743800
   163  C          0.50712000       0.39288000       0.39256200
   164  C         -0.00712000       0.60712000       0.89256200
   165  C         -0.00712000       0.89288000       0.39256200
   166  C          0.50712000       0.10712000       0.89256200
   167  C          0.49288000       0.60712000       0.60743800
   168  C          0.00712000       0.39288000       0.10743800
   169  H          0.11060000       0.10840000       0.61160000
   170  H          0.38940000       0.89160000       0.11160000
   171  H          0.61060000       0.39160000       0.38840000
   172  H          0.88940000       0.60840000       0.88840000
   173  H          0.88940000       0.89160000       0.38840000
   174  H          0.61060000       0.10840000       0.88840000
   175  H          0.38940000       0.60840000       0.61160000
   176  H          0.11060000       0.39160000       0.11160000
   177  C          0.36213000       0.08043000       0.71644900
   178  C          0.13787000       0.91957000       0.21644900
   179  C          0.86213000       0.41957000       0.28355100
   180  C          0.63787000       0.58043000       0.78355100
   181  C          0.63787000       0.91957000       0.28355100
   182  C          0.86213000       0.08043000       0.78355100
   183  C          0.13787000       0.58043000       0.71644900
   184  C          0.36213000       0.41957000       0.21644900
   185  H          0.35730000       0.12140000       0.75050000
   186  H          0.14270000       0.87860000       0.25050000
   187  H          0.85730000       0.37860000       0.24950000
   188  H          0.64270000       0.62140000       0.74950000
   189  H          0.64270000       0.87860000       0.24950000
   190  H          0.85730000       0.12140000       0.74950000
   191  H          0.14270000       0.62140000       0.75050000
   192  H          0.35730000       0.37860000       0.25050000
   193  C          0.27913000       0.91417000       0.65758100
   194  C          0.22087000       0.08583000       0.15758100
   195  C          0.77913000       0.58583000       0.34241900
   196  C          0.72087000       0.41417000       0.84241900
   197  C          0.72087000       0.08583000       0.34241900
   198  C          0.77913000       0.91417000       0.84241900
   199  C          0.22087000       0.41417000       0.65758100
   200  C          0.27913000       0.58583000       0.15758100
   201  H          0.21910000       0.84150000       0.65110000
   202  H          0.28090000       0.15850000       0.15110000
   203  H          0.71910000       0.65850000       0.34890000
   204  H          0.78090000       0.34150000       0.84890000
   205  H          0.78090000       0.15850000       0.34890000
   206  H          0.71910000       0.84150000       0.84890000
   207  H          0.28090000       0.34150000       0.65110000
   208  H          0.21910000       0.65850000       0.15110000
   209  C          0.27493000       0.97597000       0.70703100
   210  C          0.22507000       0.02403000       0.20703100
   211  C          0.77493000       0.52403000       0.29296900
   212  C          0.72507000       0.47597000       0.79296900
   213  C          0.72507000       0.02403000       0.29296900
   214  C          0.77493000       0.97597000       0.79296900
   215  C          0.22507000       0.47597000       0.70703100
   216  C          0.27493000       0.52403000       0.20703100
   217  H          0.21120000       0.94580000       0.73450000
   218  H          0.28880000       0.05420000       0.23450000
   219  H          0.71120000       0.55420000       0.26550000
   220  H          0.78880000       0.44580000       0.76550000
   221  H          0.78880000       0.05420000       0.26550000
   222  H          0.71120000       0.94580000       0.76550000
   223  H          0.28880000       0.44580000       0.73450000
   224  H          0.21120000       0.55420000       0.23450000
   225  H          0.53730000       0.27430000       0.48091000
   226  H          0.96270000       0.72570000       0.98091000
   227  H          0.03730000       0.22570000       0.51909000
   228  H          0.46270000       0.77430000       0.01909000
   229  H          0.46270000       0.72570000       0.51909000
   230  H          0.03730000       0.27430000       0.01909000
   231  H          0.96270000       0.77430000       0.48091000
   232  H          0.53730000       0.22570000       0.98091000
   233  H          0.67830000       0.22430000       0.50671100
   234  H          0.82170000       0.77570000       0.00671100
   235  H          0.17830000       0.27570000       0.49328900
   236  H          0.32170000       0.72430000       0.99328900
   237  H          0.32170000       0.77570000       0.49328900
   238  H          0.17830000       0.22430000       0.99328900
   239  H          0.82170000       0.72430000       0.50671100
   240  H          0.67830000       0.27570000       0.00671100
