data_CBMZPN01
_symmetry_space_group_name_H-M    'P1'
_symmetry_Int_Tables_number       1
loop_
_symmetry_equiv_pos_site_id
_symmetry_equiv_pos_as_xyz
1 x,y,z
_cell_length_a                   7.5291
_cell_length_b                   11.1482
_cell_length_c                   15.4702
_cell_angle_alpha                90.0
_cell_angle_beta                 116.171
_cell_angle_gamma                90.0
loop_
_atom_site_label
_atom_site_type_symbol
_atom_site_fract_x
_atom_site_fract_y
_atom_site_fract_z
     1  C          0.17860000       0.88590000       0.16870000
     2  C          0.82140000       0.38590000       0.33130000
     3  C          0.82140000       0.11410000       0.83130000
     4  C          0.17860000       0.61410000       0.66870000
     5  C          0.23100000       0.94490000       0.25480000
     6  C          0.76900000       0.44490000       0.24520000
     7  C          0.76900000       0.05510000       0.74520000
     8  C          0.23100000       0.55510000       0.75480000
     9  C          0.42590000       0.94570000       0.32350000
    10  C          0.57410000       0.44570000       0.17650000
    11  C          0.57410000       0.05430000       0.67650000
    12  C          0.42590000       0.55430000       0.82350000
    13  C          0.56720000       0.88750000       0.30570000
    14  C          0.43280000       0.38750000       0.19430000
    15  C          0.43280000       0.11250000       0.69430000
    16  C          0.56720000       0.61250000       0.80570000
    17  C          0.67610000       0.76940000       0.20250000
    18  C          0.32390000       0.26940000       0.29750000
    19  C          0.32390000       0.23060000       0.79750000
    20  C          0.67610000       0.73060000       0.70250000
    21  C          0.68870000       0.75680000       0.11990000
    22  C          0.31130000       0.25680000       0.38010000
    23  C          0.31130000       0.24320000       0.88010000
    24  C          0.68870000       0.74320000       0.61990000
    25  C          0.61640000       0.83880000       0.95930000
    26  C          0.38360000       0.33880000       0.54070000
    27  C          0.38360000       0.16120000       0.04070000
    28  C          0.61640000       0.66120000       0.45930000
    29  C          0.48950000       0.88590000       0.87110000
    30  C          0.51050000       0.38590000       0.62890000
    31  C          0.51050000       0.11410000       0.12890000
    32  C          0.48950000       0.61410000       0.37110000
    33  C          0.29040000       0.89760000       0.84660000
    34  C          0.70960000       0.39760000       0.65340000
    35  C          0.70960000       0.10240000       0.15340000
    36  C          0.29040000       0.60240000       0.34660000
    37  C          0.21840000       0.86110000       0.91040000
    38  C          0.78160000       0.36110000       0.58960000
    39  C          0.78160000       0.13890000       0.08960000
    40  C          0.21840000       0.63890000       0.41040000
    41  C          0.34560000       0.81130000      -0.00130000
    42  C          0.65440000       0.31130000       0.50130000
    43  C          0.65440000       0.18870000       0.00130000
    44  C          0.34560000       0.68870000       0.49870000
    45  C          0.54760000       0.80120000       0.02560000
    46  C          0.45240000       0.30120000       0.47440000
    47  C          0.45240000       0.19880000       0.97440000
    48  C          0.54760000       0.69880000       0.52560000
    49  C          0.51890000       0.82680000       0.21850000
    50  C          0.48110000       0.32680000       0.28150000
    51  C          0.48110000       0.17320000       0.78150000
    52  C          0.51890000       0.67320000       0.71850000
    53  C          0.32030000       0.82680000       0.15060000
    54  C          0.67970000       0.32680000       0.34940000
    55  C          0.67970000       0.17320000       0.84940000
    56  C          0.32030000       0.67320000       0.65060000
    57  N          0.26590000       0.76520000       0.06090000
    58  N          0.73410000       0.26520000       0.43910000
    59  N          0.73410000       0.23480000       0.93910000
    60  N          0.26590000       0.73480000       0.56090000
    61  C          0.15980000       0.65950000       0.04100000
    62  C          0.84020000       0.15950000       0.45900000
    63  C          0.84020000       0.34050000       0.95900000
    64  C          0.15980000       0.84050000       0.54100000
    65  N          0.14170000       0.60050000       0.96200000
    66  N          0.85830000       0.10050000       0.53800000
    67  N          0.85830000       0.39950000       0.03800000
    68  N          0.14170000       0.89950000       0.46200000
    69  O          0.08770000       0.62230000       0.09340000
    70  O          0.91230000       0.12230000       0.40660000
    71  O          0.91230000       0.37770000       0.90660000
    72  O          0.08770000       0.87770000       0.59340000
    73  H          0.04400000       0.88800000       0.12000000
    74  H          0.95600000       0.38800000       0.38000000
    75  H          0.95600000       0.11200000       0.88000000
    76  H          0.04400000       0.61200000       0.62000000
    77  H          0.13200000      -0.01200000       0.26900000
    78  H          0.86800000       0.48800000       0.23100000
    79  H          0.86800000       0.01200000       0.73100000
    80  H          0.13200000       0.51200000       0.76900000
    81  H          0.46400000       0.98500000       0.38500000
    82  H          0.53600000       0.48500000       0.11500000
    83  H          0.53600000       0.01500000       0.61500000
    84  H          0.46400000       0.51500000       0.88500000
    85  H          0.70000000       0.88400000       0.35100000
    86  H          0.30000000       0.38400000       0.14900000
    87  H          0.30000000       0.11600000       0.64900000
    88  H          0.70000000       0.61600000       0.85100000
    89  H          0.79500000       0.74500000       0.26500000
    90  H          0.20500000       0.24500000       0.23500000
    91  H          0.20500000       0.25500000       0.73500000
    92  H          0.79500000       0.75500000       0.76500000
    93  H          0.81000000       0.73300000       0.12200000
    94  H          0.19000000       0.23300000       0.37800000
    95  H          0.19000000       0.26700000       0.87800000
    96  H          0.81000000       0.76700000       0.62200000
    97  H          0.76300000       0.83000000       0.97600000
    98  H          0.23700000       0.33000000       0.52400000
    99  H          0.23700000       0.17000000       0.02400000
   100  H          0.76300000       0.67000000       0.47600000
   101  H          0.53700000       0.91800000       0.82200000
   102  H          0.46300000       0.41800000       0.67800000
   103  H          0.46300000       0.08200000       0.17800000
   104  H          0.53700000       0.58200000       0.32200000
   105  H          0.19300000       0.93100000       0.78300000
   106  H          0.80700000       0.43100000       0.71700000
   107  H          0.80700000       0.06900000       0.21700000
   108  H          0.19300000       0.56900000       0.28300000
   109  H          0.08000000       0.85900000       0.89600000
   110  H          0.92000000       0.35900000       0.60400000
   111  H          0.92000000       0.14100000       0.10400000
   112  H          0.08000000       0.64100000       0.39600000
   113  H          0.07000000       0.54100000       0.94600000
   114  H          0.93000000       0.04100000       0.55400000
   115  H          0.93000000       0.45900000       0.05400000
   116  H          0.07000000       0.95900000       0.44600000
   117  H          0.19200000       0.63200000       0.92600000
   118  H          0.80800000       0.13200000       0.57400000
   119  H          0.80800000       0.36800000       0.07400000
   120  H          0.19200000       0.86800000       0.42600000
