data_CBMZPN11
_symmetry_space_group_name_H-M    'P1'
_symmetry_Int_Tables_number       1
loop_
_symmetry_equiv_pos_site_id
_symmetry_equiv_pos_as_xyz
1 x,y,z
_cell_length_a                   5.17056
_cell_length_b                   20.5742
_cell_length_c                   22.2452
_cell_angle_alpha                84.1244
_cell_angle_beta                 88.0084
_cell_angle_gamma                85.1874
loop_
_atom_site_label
_atom_site_type_symbol
_atom_site_fract_x
_atom_site_fract_y
_atom_site_fract_z
     1  O          0.18324000       0.78222110       0.02198900
     2  O          0.81676000       0.21777890       0.97801100
     3  N          0.08987000       0.73812150       0.11714130
     4  N          0.91013000       0.26187850       0.88285870
     5  H          0.22670000       0.76641700       0.13641500
     6  H          0.77330000       0.23358300       0.86358500
     7  H          0.97370000       0.71851700       0.13671600
     8  H          0.02630000       0.28148300       0.86328400
     9  N          0.94065000       0.69441120       0.03381110
    10  N          0.05935000       0.30558880       0.96618890
    11  C          0.07656000       0.74070160       0.05660160
    12  C          0.92344000       0.25929840       0.94339840
    13  C          0.87997000       0.63496150       0.06982140
    14  C          0.12003000       0.36503850       0.93017860
    15  C          0.67147000       0.63669180       0.11019150
    16  C          0.32853000       0.36330820       0.88980850
    17  H          0.55650000       0.68031300       0.11341200
    18  H          0.44350000       0.31968700       0.88658800
    19  C          0.61788000       0.58036190       0.14709160
    20  C          0.38212000       0.41963810       0.85290840
    21  H          0.46060000       0.58221400       0.17581400
    22  H          0.53940000       0.41778600       0.82418600
    23  C          0.77398000       0.52292000       0.14175170
    24  C          0.22602000       0.47708000       0.85824830
    25  H          0.73160000       0.48341600       0.16691400
    26  H          0.26840000       0.51658400       0.83308600
    27  C         -0.01652000       0.52120180       0.10170160
    28  C          0.01652000       0.47879820       0.89829840
    29  H          0.09960000       0.48311500       0.09711300
    30  H          0.90040000       0.51688500       0.90288700
    31  C          0.04216000       0.57740160       0.06396140
    32  C          0.95784000       0.42259840       0.93603860
    33  C          0.26427000       0.57388180       0.02203170
    34  C          0.73573000       0.42611820       0.97796830
    35  H          0.40270000       0.54151600       0.03591400
    36  H          0.59730000       0.45848400       0.96408600
    37  C          0.29377000       0.60782170       0.96820840
    38  C          0.70623000       0.39217830       0.03179160
    39  H          0.45060000       0.59871300       0.94178700
    40  H          0.54940000       0.40128700       0.05821300
    41  C          0.09867000       0.65518150       0.93806850
    42  C          0.90133000       0.34481850       0.06193150
    43  C          0.08218000       0.65864170       0.87486840
    44  C          0.91782000       0.34135830       0.12513160
    45  H          0.21370000       0.63191700       0.85118400
    46  H          0.78630000       0.36808300       0.14881600
    47  C          0.88578000       0.69802180       0.84516820
    48  C          0.11422000       0.30197820       0.15483180
    49  H          0.86560000       0.69901400       0.80048600
    50  H          0.13440000       0.30098600       0.19951400
    51  C          0.70519000       0.73524180       0.87783830
    52  C          0.29481000       0.26475820       0.12216170
    53  H          0.56760000       0.76081600       0.85768600
    54  H          0.43240000       0.23918400       0.14231400
    55  C          0.72298000       0.73391170       0.94005840
    56  C          0.27702000       0.26608830       0.05994160
    57  H          0.59560000       0.75941300       0.96188800
    58  H          0.40440000       0.24058700       0.03811200
    59  C          0.92227000       0.69478150       0.96948860
    60  C          0.07773000       0.30521850       0.03051140
    61  O          0.17014000       0.56099100       0.45267900
    62  O          0.82986000       0.43900900       0.54732100
    63  N          0.25067000       0.45109160       0.45940140
    64  N          0.74933000       0.54890840       0.54059860
    65  H          0.12170000       0.44581600       0.48751600
    66  H          0.87830000       0.55418400       0.51248400
    67  H          0.34460000       0.41761500       0.45021400
    68  H          0.65540000       0.58238500       0.54978600
    69  N          0.44475000       0.51641120       0.38254110
    70  N          0.55525000       0.48358880       0.61745890
    71  C          0.28386000       0.51155170       0.43291140
    72  C          0.71614000       0.48844830       0.56708860
    73  C          0.52386000       0.46105150       0.35013140
    74  C          0.47614000       0.53894850       0.64986860
    75  C          0.72757000       0.41710180       0.37062180
    76  C          0.27243000       0.58289820       0.62937820
    77  H          0.82980000       0.42601800       0.40191700
    78  H          0.17020000       0.57398200       0.59808300
    79  C          0.79409000       0.36168190       0.34122000
    80  C          0.20591000       0.63831810       0.65878000
    81  H          0.93560000       0.33801500       0.35701400
    82  H          0.06440000       0.66198500       0.64298600
    83  C          0.66399000       0.35122190       0.29112000
    84  C          0.33601000       0.64877810       0.70888000
    85  H          0.71950000       0.31361400       0.27181300
    86  H          0.28050000       0.68638600       0.72818700
    87  C          0.45958000       0.39470180       0.27023170
    88  C          0.54042000       0.60529820       0.72976830
    89  H          0.36560000       0.38531400       0.23451400
    90  H          0.63440000       0.61468600       0.76548600
    91  C          0.38646000       0.45097150       0.29917150
    92  C          0.61354000       0.54902850       0.70082850
    93  C          0.17057000       0.49615180       0.27572150
    94  C          0.82943000       0.50384820       0.72427850
    95  H          0.04160000       0.47381400       0.25411300
    96  H          0.95840000       0.52618600       0.74588700
    97  C          0.14108000       0.56116190       0.27721160
    98  C          0.85892000       0.43883810       0.72278840
    99  H          0.00560000       0.58281400       0.25891300
   100  H         -0.00560000       0.41718600       0.74108700
   101  C          0.31766000       0.60211150       0.30180140
   102  C          0.68234000       0.39788850       0.69819860
   103  C          0.34707000       0.66584170       0.27379160
   104  C          0.65293000       0.33415830       0.72620840
   105  H          0.22860000       0.68231400       0.24091400
   106  H          0.77140000       0.31768600       0.75908600
   107  C          0.52717000       0.70386180       0.29249160
   108  C          0.47283000       0.29613820       0.70750840
   109  H          0.54960000       0.74741500       0.27311300
   110  H          0.45040000       0.25258500       0.72688700
   111  C          0.68407000       0.68032170       0.34037160
   112  C          0.31593000       0.31967830       0.65962840
   113  H          0.81250000       0.70461300       0.35451200
   114  H          0.18750000       0.29538700       0.64548800
   115  C          0.65577000       0.61857160       0.36993150
   116  C          0.34423000       0.38142840       0.63006850
   117  H          0.76560000       0.60361500       0.40431400
   118  H          0.23440000       0.39638500       0.59568600
   119  C          0.47416000       0.58042150       0.35101140
   120  C          0.52584000       0.41957850       0.64898860
   121  O          0.51644000       0.19421100       0.83735900
   122  O          0.48356000       0.80578900       0.16264100
   123  N          0.51467000       0.12622180       0.92400140
   124  N          0.48533000       0.87377820       0.07599860
   125  H          0.58870000       0.15411600       0.94081500
   126  H          0.41130000       0.84588400       0.05918500
   127  H          0.45880000       0.09181900       0.94371700
   128  H          0.54120000       0.90818100       0.05628300
   129  N          0.33575000       0.09756120       0.83753110
   130  N          0.66425000       0.90243880       0.16246890
   131  C          0.45896000       0.14218170       0.86498150
   132  C          0.54104000       0.85781830       0.13501850
   133  C          0.30867000       0.03189160       0.86448140
   134  C          0.69133000       0.96810840       0.13551860
   135  C          0.11198000       0.01894190       0.90591150
   136  C          0.88802000       0.98105810       0.09408850
   137  H         -0.01260000       0.05441400       0.91541300
   138  H          0.01260000       0.94558600       0.08458700
   139  C          0.09169000       0.95548000       0.93315170
   140  C          0.90831000       0.04452000       0.06684830
   141  H          0.94330000       0.94938400       0.96161500
   142  H          0.05670000       0.05061600       0.03838500
   143  C          0.26939000       0.90558000       0.91864170
   144  C          0.73061000       0.09442000       0.08135830
   145  H          0.27160000       0.85988300       0.93431500
   146  H          0.72840000       0.14011700       0.06568500
   147  C          0.46698000       0.91789820       0.87691170
   148  C          0.53302000       0.08210180       0.12308830
   149  H          0.59070000       0.88108300       0.86301500
   150  H          0.40930000       0.11891700       0.13698500
   151  C          0.48877000       0.98143840       0.84764140
   152  C          0.51123000       0.01856160       0.15235860
   153  C          0.68988000       0.99168830       0.80126160
   154  C          0.31012000       0.00831170       0.19873840
   155  H          0.84250000       0.96468700       0.80121200
   156  H          0.15750000       0.03531300       0.19878800
   157  C          0.67807000       0.03349160       0.75108160
   158  C          0.32193000       0.96650840       0.24891840
   159  H          0.83750000       0.03281100       0.72081100
   160  H          0.16250000       0.96718900       0.27918900
   161  C          0.45706000       0.07975150       0.73273140
   162  C          0.54294000       0.92024850       0.26726860
   163  C          0.40707000       0.09496170       0.67067150
   164  C          0.59293000       0.90503830       0.32932850
   165  H          0.51850000       0.07351300       0.64241300
   166  H          0.48150000       0.92648700       0.35758700
   167  C          0.19527000       0.13544170       0.65139170
   168  C          0.80473000       0.86455830       0.34860830
   169  H          0.17770000       0.14511600       0.60921600
   170  H          0.82230000       0.85488400       0.39078400
   171  C          0.03058000       0.16411170       0.69281160
   172  C          0.96942000       0.83588830       0.30718840
   173  H          0.87640000       0.19011500       0.68091400
   174  H          0.12360000       0.80988500       0.31908600
   175  C          0.07637000       0.15087160       0.75448160
   176  C          0.92363000       0.84912840       0.24551840
   177  H          0.95740000       0.16991500       0.78341400
   178  H          0.04260000       0.83008500       0.21658600
   179  C          0.28777000       0.10994150       0.77342140
   180  C          0.71223000       0.89005850       0.22657860
   181  O          0.28884000       0.07013100       0.52222100
   182  O          0.71116000       0.92986900       0.47777900
   183  N          0.27257000       0.01825150       0.43739150
   184  N          0.72743000       0.98174850       0.56260850
   185  H          0.40270000       0.99218200       0.45011600
   186  H          0.59730000       0.00781800       0.54988400
   187  H          0.18170000       0.01491700       0.40781600
   188  H          0.81830000       0.98508300       0.59218400
   189  N          0.03405000       0.11749120       0.44591110
   190  N          0.96595000       0.88250880       0.55408890
   191  C          0.20496000       0.06775160       0.47133160
   192  C          0.79504000       0.93224840       0.52866840
   193  C         -0.01516000       0.12527150       0.38218140
   194  C          0.01516000       0.87472850       0.61781860
   195  C          0.80373000       0.08924180       0.35914180
   196  C          0.19627000       0.91075820       0.64085820
   197  H          0.70030000       0.05621700       0.38851600
   198  H          0.29970000       0.94378300       0.61148400
   199  C          0.76081000       0.09512000       0.29762000
   200  C          0.23919000       0.90488000       0.70238000
   201  H          0.63140000       0.07001500       0.28441400
   202  H          0.36860000       0.92998500       0.71558600
   203  C          0.90019000       0.13762000       0.25942000
   204  C          0.09981000       0.86238000       0.74058000
   205  H          0.86030000       0.13921700       0.21841700
   206  H          0.13970000       0.86078300       0.78158300
   207  C          0.08119000       0.17292000       0.28227170
   208  C          0.91881000       0.82708000       0.71772830
   209  H          0.18860000       0.20491400       0.25421300
   210  H          0.81140000       0.79508600       0.74578700
   211  C          0.12637000       0.16910160       0.34421150
   212  C          0.87363000       0.83089840       0.65578850
   213  C          0.31318000       0.20926170       0.36698180
   214  C          0.68682000       0.79073830       0.63301820
   215  H          0.44160000       0.22051400       0.33981400
   216  H          0.55840000       0.77948600       0.66018600
   217  C          0.30487000       0.23549170       0.41963170
   218  C          0.69513000       0.76450830       0.58036830
   219  H          0.45260000       0.26281500       0.42751300
   220  H          0.54740000       0.73718500       0.57248700
   221  C          0.10346000       0.22911150       0.46711140
   222  C          0.89654000       0.77088850       0.53288860
   223  C          0.03387000       0.28171170       0.50142160
   224  C          0.96613000       0.71828830       0.49857840
   225  H          0.13260000       0.32041500       0.49431300
   226  H          0.86740000       0.67958500       0.50568700
   227  C          0.83193000       0.28005180       0.54357170
   228  C          0.16807000       0.71994820       0.45642830
   229  H          0.79540000       0.31861400       0.56491300
   230  H          0.20460000       0.68138600       0.43508700
   231  C          0.69483000       0.22490170       0.55322160
   232  C          0.30517000       0.77509830       0.44677840
   233  H          0.53540000       0.22311400       0.57941300
   234  H          0.46460000       0.77688600       0.42058700
   235  C          0.76093000       0.17181170       0.52056150
   236  C          0.23907000       0.82818830       0.47943850
   237  H          0.66540000       0.13491500       0.52691300
   238  H          0.33460000       0.86508500       0.47308700
   239  C          0.96374000       0.17393150       0.47841140
   240  C          0.03626000       0.82606850       0.52158860
