data_CBMZPN12
_symmetry_space_group_name_H-M    'P1'
_symmetry_Int_Tables_number       1
loop_
_symmetry_equiv_pos_site_id
_symmetry_equiv_pos_as_xyz
1 x,y,z
_cell_length_a                   26.6094
_cell_length_b                   6.92691
_cell_length_c                   13.9572
_cell_angle_alpha                90.0
_cell_angle_beta                 109.7022
_cell_angle_gamma                90.0
loop_
_atom_site_label
_atom_site_type_symbol
_atom_site_fract_x
_atom_site_fract_y
_atom_site_fract_z
     1  O          0.07219300      -0.00551130       0.03660600
     2  O          0.57219300       0.49448870       0.03660600
     3  O          0.92780700      -0.00551130       0.46339400
     4  O          0.42780700       0.49448870       0.46339400
     5  O          0.92780700       0.00551130       0.96339400
     6  O          0.42780700       0.50551130       0.96339400
     7  O          0.07219300       0.00551130       0.53660600
     8  O          0.57219300       0.50551130       0.53660600
     9  N          0.01451500       0.18022000       0.91587900
    10  N          0.51451500       0.68022000       0.91587900
    11  N          0.98548500       0.18022000       0.58412100
    12  N          0.48548500       0.68022000       0.58412100
    13  N          0.98548500       0.81978000       0.08412100
    14  N          0.48548500       0.31978000       0.08412100
    15  N          0.01451500       0.81978000       0.41587900
    16  N          0.51451500       0.31978000       0.41587900
    17  N          0.10588400       0.23086150       0.96282200
    18  N          0.60588400       0.73086150       0.96282200
    19  N          0.89411600       0.23086150       0.53717800
    20  N          0.39411600       0.73086150       0.53717800
    21  N          0.89411600       0.76913850       0.03717800
    22  N          0.39411600       0.26913850       0.03717800
    23  N          0.10588400       0.76913850       0.46282200
    24  N          0.60588400       0.26913850       0.46282200
    25  C          0.06402500       0.12780190       0.97431100
    26  C          0.56402500       0.62780190       0.97431100
    27  C          0.93597500       0.12780190       0.52568900
    28  C          0.43597500       0.62780190       0.52568900
    29  C          0.93597500       0.87219810       0.02568900
    30  C          0.43597500       0.37219810       0.02568900
    31  C          0.06402500       0.87219810       0.47431100
    32  C          0.56402500       0.37219810       0.47431100
    33  C          0.15962500       0.16618180       0.01395900
    34  C          0.65962500       0.66618180       0.01395900
    35  C          0.84037500       0.16618180       0.48604100
    36  C          0.34037500       0.66618180       0.48604100
    37  C          0.84037500       0.83381820       0.98604100
    38  C          0.34037500       0.33381820       0.98604100
    39  C          0.15962500       0.83381820       0.51395900
    40  C          0.65962500       0.33381820       0.51395900
    41  C          0.18407500       0.20412000       0.11679100
    42  C          0.68407500       0.70412000       0.11679100
    43  C          0.81592500       0.20412000       0.38320900
    44  C          0.31592500       0.70412000       0.38320900
    45  C          0.81592500       0.79588000       0.88320900
    46  C          0.31592500       0.29588000       0.88320900
    47  C          0.18407500       0.79588000       0.61679100
    48  C          0.68407500       0.29588000       0.61679100
    49  H          0.16495000       0.27820000       0.15211100
    50  H          0.66495000       0.77820000       0.15211100
    51  H          0.83505000       0.27820000       0.34788900
    52  H          0.33505000       0.77820000       0.34788900
    53  H          0.83505000       0.72180000       0.84788900
    54  H          0.33505000       0.22180000       0.84788900
    55  H          0.16495000       0.72180000       0.65211100
    56  H          0.66495000       0.22180000       0.65211100
    57  C          0.23486500       0.13642000       0.16745110
    58  C          0.73486500       0.63642000       0.16745110
    59  C          0.76513500       0.13642000       0.33254890
    60  C          0.26513500       0.63642000       0.33254890
    61  C          0.76513500       0.86358000       0.83254890
    62  C          0.26513500       0.36358000       0.83254890
    63  C          0.23486500       0.86358000       0.66745110
    64  C          0.73486500       0.36358000       0.66745110
    65  H          0.25186000       0.16020000       0.24041200
    66  H          0.75186000       0.66020000       0.24041200
    67  H          0.74814000       0.16020000       0.25958800
    68  H          0.24814000       0.66020000       0.25958800
    69  H          0.74814000       0.83980000       0.75958800
    70  H          0.24814000       0.33980000       0.75958800
    71  H          0.25186000       0.83980000       0.74041200
    72  H          0.75186000       0.33980000       0.74041200
    73  C          0.26147500       0.02972000       0.11551110
    74  C          0.76147500       0.52972000       0.11551110
    75  C          0.73852500       0.02972000       0.38448890
    76  C          0.23852500       0.52972000       0.38448890
    77  C          0.73852500       0.97028000       0.88448890
    78  C          0.23852500       0.47028000       0.88448890
    79  C          0.26147500       0.97028000       0.61551110
    80  C          0.76147500       0.47028000       0.61551110
    81  H          0.29816000       0.97858100       0.14881100
    82  H          0.79816000       0.47858100       0.14881100
    83  H          0.70184000       0.97858100       0.35118900
    84  H          0.20184000       0.47858100       0.35118900
    85  H          0.70184000       0.02141900       0.85118900
    86  H          0.20184000       0.52141900       0.85118900
    87  H          0.29816000       0.02141900       0.64881100
    88  H          0.79816000       0.52141900       0.64881100
    89  C          0.23759500      -0.00475190       0.01286110
    90  C          0.73759500       0.49524810       0.01286110
    91  C          0.76240500      -0.00475190       0.48713890
    92  C          0.26240500       0.49524810       0.48713890
    93  C          0.76240500       0.00475190       0.98713890
    94  C          0.26240500       0.50475190       0.98713890
    95  C          0.23759500       0.00475190       0.51286110
    96  C          0.73759500       0.50475190       0.51286110
    97  H          0.25596000       0.92680000       0.97568900
    98  H          0.75596000       0.42680000       0.97568900
    99  H          0.74404000       0.92680000       0.52431100
   100  H          0.24404000       0.42680000       0.52431100
   101  H          0.74404000       0.07320000       0.02431100
   102  H          0.24404000       0.57320000       0.02431100
   103  H          0.25596000       0.07320000       0.47568900
   104  H          0.75596000       0.57320000       0.47568900
   105  C          0.18620500       0.06323180       0.95909900
   106  C          0.68620500       0.56323180       0.95909900
   107  C          0.81379500       0.06323180       0.54090100
   108  C          0.31379500       0.56323180       0.54090100
   109  C          0.81379500       0.93676820       0.04090100
   110  C          0.31379500       0.43676820       0.04090100
   111  C          0.18620500       0.93676820       0.45909900
   112  C          0.68620500       0.43676820       0.45909900
   113  C          0.16329600       0.02692000       0.84968890
   114  C          0.66329600       0.52692000       0.84968890
   115  C          0.83670400       0.02692000       0.65031110
   116  C          0.33670400       0.52692000       0.65031110
   117  C          0.83670400       0.97308000       0.15031110
   118  C          0.33670400       0.47308000       0.15031110
   119  C          0.16329600       0.97308000       0.34968890
   120  C          0.66329600       0.47308000       0.34968890
   121  H          0.17935000       0.90880000       0.82849000
   122  H          0.67935000       0.40880000       0.82849000
   123  H          0.82065000       0.90880000       0.67151000
   124  H          0.32065000       0.40880000       0.67151000
   125  H          0.82065000       0.09120000       0.17151000
   126  H          0.32065000       0.59120000       0.17151000
   127  H          0.17935000       0.09120000       0.32849000
   128  H          0.67935000       0.59120000       0.32849000
   129  C          0.12835600       0.13512000       0.77823890
   130  C          0.62835600       0.63512000       0.77823890
   131  C          0.87164400       0.13512000       0.72176110
   132  C          0.37164400       0.63512000       0.72176110
   133  C          0.87164400       0.86488000       0.22176110
   134  C          0.37164400       0.36488000       0.22176110
   135  C          0.12835600       0.86488000       0.27823890
   136  C          0.62835600       0.36488000       0.27823890
   137  H          0.12056000       0.09620000       0.70458900
   138  H          0.62056000       0.59620000       0.70458900
   139  H          0.87944000       0.09620000       0.79541100
   140  H          0.37944000       0.59620000       0.79541100
   141  H          0.87944000       0.90380000       0.29541100
   142  H          0.37944000       0.40380000       0.29541100
   143  H          0.12056000       0.90380000       0.20458900
   144  H          0.62056000       0.40380000       0.20458900
   145  C          0.10543500       0.31852000       0.79222100
   146  C          0.60543500       0.81852000       0.79222100
   147  C          0.89456500       0.31852000       0.70777900
   148  C          0.39456500       0.81852000       0.70777900
   149  C          0.89456500       0.68148000       0.20777900
   150  C          0.39456500       0.18148000       0.20777900
   151  C          0.10543500       0.68148000       0.29222100
   152  C          0.60543500       0.18148000       0.29222100
   153  C          0.09166600       0.45602000       0.71347900
   154  C          0.59166600       0.95602000       0.71347900
   155  C          0.90833400       0.45602000       0.78652100
   156  C          0.40833400       0.95602000       0.78652100
   157  C          0.90833400       0.54398000       0.28652100
   158  C          0.40833400       0.04398000       0.28652100
   159  C          0.09166600       0.54398000       0.21347900
   160  C          0.59166600       0.04398000       0.21347900
   161  H          0.09706000       0.41920000       0.64988800
   162  H          0.59706000       0.91920000       0.64988800
   163  H          0.90294000       0.41920000       0.85011200
   164  H          0.40294000       0.91920000       0.85011200
   165  H          0.90294000       0.58080000       0.35011200
   166  H          0.40294000       0.08080000       0.35011200
   167  H          0.09706000       0.58080000       0.14988800
   168  H          0.59706000       0.08080000       0.14988800
   169  C          0.07308600       0.63602000       0.72544890
   170  C          0.57308600       0.13602000       0.72544890
   171  C          0.92691400       0.63602000       0.77455110
   172  C          0.42691400       0.13602000       0.77455110
   173  C          0.92691400       0.36398000       0.27455110
   174  C          0.42691400       0.86398000       0.27455110
   175  C          0.07308600       0.36398000       0.22544890
   176  C          0.57308600       0.86398000       0.22544890
   177  H          0.06316000       0.73520000       0.66958700
   178  H          0.56316000       0.23520000       0.66958700
   179  H          0.93684000       0.73520000       0.83041300
   180  H          0.43684000       0.23520000       0.83041300
   181  H          0.93684000       0.26480000       0.33041300
   182  H          0.43684000       0.76480000       0.33041300
   183  H          0.06316000       0.26480000       0.16958700
   184  H          0.56316000       0.76480000       0.16958700
   185  C          0.06744600       0.68702000       0.81721880
   186  C          0.56744600       0.18702000       0.81721880
   187  C          0.93255400       0.68702000       0.68278120
   188  C          0.43255400       0.18702000       0.68278120
   189  C          0.93255400       0.31298000       0.18278120
   190  C          0.43255400       0.81298000       0.18278120
   191  C          0.06744600       0.31298000       0.31721880
   192  C          0.56744600       0.81298000       0.31721880
   193  H          0.05496000       0.81320000       0.82688900
   194  H          0.55496000       0.31320000       0.82688900
   195  H          0.94504000       0.81320000       0.67311100
   196  H          0.44504000       0.31320000       0.67311100
   197  H          0.94504000       0.18680000       0.17311100
   198  H          0.44504000       0.68680000       0.17311100
   199  H          0.05496000       0.18680000       0.32688900
   200  H          0.55496000       0.68680000       0.32688900
   201  C          0.08000500       0.55512000       0.89611890
   202  C          0.58000500       0.05512000       0.89611890
   203  C          0.91999500       0.55512000       0.60388110
   204  C          0.41999500       0.05512000       0.60388110
   205  C          0.91999500       0.44488000       0.10388110
   206  C          0.41999500       0.94488000       0.10388110
   207  C          0.08000500       0.44488000       0.39611890
   208  C          0.58000500       0.94488000       0.39611890
   209  H          0.07516000       0.59120000       0.96158900
   210  H          0.57516000       0.09120000       0.96158900
   211  H          0.92484000       0.59120000       0.53841100
   212  H          0.42484000       0.09120000       0.53841100
   213  H          0.92484000       0.40880000       0.03841100
   214  H          0.42484000       0.90880000       0.03841100
   215  H          0.07516000       0.40880000       0.46158900
   216  H          0.57516000       0.90880000       0.46158900
   217  C          0.09763500       0.37203190       0.88342100
   218  C          0.59763500       0.87203190       0.88342100
   219  C          0.90236500       0.37203190       0.61657900
   220  C          0.40236500       0.87203190       0.61657900
   221  C          0.90236500       0.62796810       0.11657900
   222  C          0.40236500       0.12796810       0.11657900
   223  C          0.09763500       0.62796810       0.38342100
   224  C          0.59763500       0.12796810       0.38342100
   225  H          0.98594000       0.12420000       0.92918900
   226  H          0.48594000       0.62420000       0.92918900
   227  H          0.01406000       0.12420000       0.57081100
   228  H          0.51406000       0.62420000       0.57081100
   229  H          0.01406000       0.87580000       0.07081100
   230  H          0.51406000       0.37580000       0.07081100
   231  H          0.98594000       0.87580000       0.42918900
   232  H          0.48594000       0.37580000       0.42918900
   233  H          0.00926000       0.27720000       0.87548700
   234  H          0.50926000       0.77720000       0.87548700
   235  H          0.99074000       0.27720000       0.62451300
   236  H          0.49074000       0.77720000       0.62451300
   237  H          0.99074000       0.72280000       0.12451300
   238  H          0.49074000       0.22280000       0.12451300
   239  H          0.00926000       0.72280000       0.37548700
   240  H          0.50926000       0.22280000       0.37548700
