data_CEBGOF03
_symmetry_space_group_name_H-M    'P1'
_symmetry_Int_Tables_number       1
loop_
_symmetry_equiv_pos_site_id
_symmetry_equiv_pos_as_xyz
1 x,y,z
_cell_length_a                   4.818613
_cell_length_b                   14.6304
_cell_length_c                   10.2393
_cell_angle_alpha                90.0
_cell_angle_beta                 99.8105
_cell_angle_gamma                90.0
loop_
_atom_site_label
_atom_site_type_symbol
_atom_site_fract_x
_atom_site_fract_y
_atom_site_fract_z
     1  O          0.19944000       0.45124140       0.63242000
     2  O          0.80056000       0.95124140       0.86758000
     3  O          0.80056000       0.54875860       0.36758000
     4  O          0.19944000       0.04875860       0.13242000
     5  O          0.66655000       0.09310130       0.40842000
     6  O          0.33345000       0.59310130       0.09158000
     7  O          0.33345000       0.90689870       0.59158000
     8  O          0.66655000       0.40689870       0.90842000
     9  O          0.01054000       0.34564140       0.74689190
    10  O         -0.01054000       0.84564140       0.75310810
    11  O         -0.01054000       0.65435860       0.25310810
    12  O          0.01054000       0.15435860       0.24689190
    13  C          0.15676000       0.36472000       0.66653000
    14  C          0.84324000       0.86472000       0.83347000
    15  C          0.84324000       0.63528000       0.33347000
    16  C          0.15676000       0.13528000       0.16653000
    17  C          0.29906000       0.29752000       0.59683000
    18  C          0.70094000       0.79752000       0.90317000
    19  C          0.70094000       0.70248000       0.40317000
    20  C          0.29906000       0.20248000       0.09683000
    21  C          0.25476000       0.20582000       0.62083000
    22  C          0.74524000       0.70582000       0.87917000
    23  C          0.74524000       0.79418000       0.37917000
    24  C          0.25476000       0.29418000       0.12083000
    25  H          0.13580000       0.18940000       0.68210000
    26  H          0.86420000       0.68940000       0.81790000
    27  H          0.86420000       0.81060000       0.31790000
    28  H          0.13580000       0.31060000       0.18210000
    29  C          0.60246000       0.25299190       0.44383000
    30  C          0.39754000       0.75299190       0.05617000
    31  C          0.39754000       0.74700810       0.55617000
    32  C          0.60246000       0.24700810       0.94383000
    33  H          0.72350000       0.26920000       0.38330000
    34  H          0.27650000       0.76920000       0.11670000
    35  H          0.27650000       0.73080000       0.61670000
    36  H          0.72350000       0.23080000       0.88330000
    37  C          0.47576000       0.31998190       0.50733000
    38  C          0.52424000       0.81998190      -0.00733000
    39  C          0.52424000       0.68001810       0.49267000
    40  C          0.47576000       0.18001810       0.00733000
    41  H          0.50920000       0.38240000       0.48980000
    42  H          0.49080000       0.88240000       0.01020000
    43  H          0.49080000       0.61760000       0.51020000
    44  H          0.50920000       0.11760000      -0.01020000
    45  C          0.55346000       0.16259190       0.46803000
    46  C          0.44654000       0.66259190       0.03197000
    47  C          0.44654000       0.83740810       0.53197000
    48  C          0.55346000       0.33740810       0.96803000
    49  C          0.06587000       0.51952000       0.70103000
    50  C          0.93413000       0.01952000       0.79897000
    51  C          0.93413000       0.48048000       0.29897000
    52  C          0.06587000       0.98048000       0.20103000
    53  H          0.86130000       0.51060000       0.68260000
    54  H          0.13870000       0.01060000       0.81740000
    55  H          0.13870000       0.48940000       0.31740000
    56  H          0.86130000       0.98940000       0.18260000
    57  H          0.11150000       0.58040000       0.67060000
    58  H          0.88850000       0.08040000       0.82940000
    59  H          0.88850000       0.41960000       0.32940000
    60  H          0.11150000       0.91960000       0.17060000
    61  H          0.13340000       0.51430000       0.79650000
    62  H          0.86660000       0.01430000       0.70350000
    63  H          0.86660000       0.48570000       0.20350000
    64  H          0.13340000       0.98570000       0.29650000
    65  C          0.37856000       0.13852000       0.55803000
    66  C          0.62144000       0.63852000       0.94197000
    67  C          0.62144000       0.86148000       0.44197000
    68  C          0.37856000       0.36148000       0.05803000
    69  H          0.34580000       0.07600000       0.57540000
    70  H          0.65420000       0.57600000       0.92460000
    71  H          0.65420000       0.92400000       0.42460000
    72  H          0.34580000       0.42400000       0.07540000
    73  H          0.78410000       0.11430000       0.36150000
    74  H          0.21590000       0.61430000       0.13850000
    75  H          0.21590000       0.88570000       0.63850000
    76  H          0.78410000       0.38570000       0.86150000
