data_CEBGOF01
_symmetry_space_group_name_H-M    'P1'
_symmetry_Int_Tables_number       1
loop_
_symmetry_equiv_pos_site_id
_symmetry_equiv_pos_as_xyz
1 x,y,z
_cell_length_a                   13.0063
_cell_length_b                   17.2614
_cell_length_c                   12.2092
_cell_angle_alpha                90.0
_cell_angle_beta                 129.123
_cell_angle_gamma                90.0
loop_
_atom_site_label
_atom_site_type_symbol
_atom_site_fract_x
_atom_site_fract_y
_atom_site_fract_z
     1  H          0.23440000       0.86480000       0.33640000
     2  H          0.23440000       0.13520000       0.83640000
     3  H          0.73440000       0.36480000       0.33640000
     4  H          0.73440000       0.63520000       0.83640000
     5  O          0.33209120       0.16163600       0.01730120
     6  O          0.33209120       0.83836400       0.51730120
     7  O          0.83209120       0.66163600       0.01730120
     8  O          0.83209120       0.33836400       0.51730120
     9  C          0.32374150       0.07725100       0.16717180
    10  C          0.32374150       0.92274900       0.66717180
    11  C          0.82374150       0.57725100       0.16717180
    12  C          0.82374150       0.42274900       0.66717180
    13  O          0.47284110       0.18109600       0.25113120
    14  O          0.47284110       0.81890400       0.75113120
    15  O          0.97284110       0.68109600       0.25113120
    16  O          0.97284110       0.31890400       0.75113120
    17  C          0.21612150       0.03453100       0.05566170
    18  C          0.21612150       0.96546900       0.55566170
    19  C          0.71612150       0.53453100       0.05566170
    20  C          0.71612150       0.46546900       0.55566170
    21  H          0.17460000       0.04960000       0.96120000
    22  H          0.17460000       0.95040000       0.46120000
    23  H          0.67460000       0.54960000       0.96120000
    24  H          0.67460000       0.45040000       0.46120000
    25  O          0.18073120       0.88554300       0.23867130
    26  O          0.18073120       0.11445700       0.73867130
    27  O          0.68073120       0.38554300       0.23867130
    28  O          0.68073120       0.61445700       0.73867130
    29  C          0.16914160       0.97087900       0.08028180
    30  C          0.16914160       0.02912100       0.58028180
    31  C          0.66914160       0.47087900       0.08028180
    32  C          0.66914160       0.52912100       0.58028180
    33  H          0.09580000       0.94240000       0.00350000
    34  H          0.09580000       0.05760000       0.50350000
    35  H          0.59580000       0.44240000       0.00350000
    36  H          0.59580000       0.55760000       0.50350000
    37  C          0.23033160       0.94866100       0.21931190
    38  C          0.23033160       0.05133900       0.71931190
    39  C          0.73033160       0.44866100       0.21931190
    40  C          0.73033160       0.55133900       0.71931190
    41  C          0.33592150       0.99125100       0.33139190
    42  C          0.33592150       0.00874900       0.83139190
    43  C          0.83592150       0.49125100       0.33139190
    44  C          0.83592150       0.50874900       0.83139190
    45  H          0.37640000       0.97660000       0.42570000
    46  H          0.37640000       0.02340000       0.92570000
    47  H          0.87640000       0.47660000       0.42570000
    48  H          0.87640000       0.52340000       0.92570000
    49  C          0.38242150       0.05541900       0.30551180
    50  C          0.38242150       0.94458100       0.80551180
    51  C          0.88242150       0.55541900       0.30551180
    52  C          0.88242150       0.44458100       0.80551180
    53  H          0.45450000       0.08460000       0.38240000
    54  H          0.45450000       0.91540000       0.88240000
    55  H          0.95450000       0.58460000       0.38240000
    56  H          0.95450000       0.41540000       0.88240000
    57  C          0.37373150       0.14294900       0.13540160
    58  C          0.37373150       0.85705100       0.63540160
    59  C          0.87373150       0.64294900       0.13540160
    60  C          0.87373150       0.35705100       0.63540160
    61  C          0.52743170       0.24659900       0.22900190
    62  C          0.52743170       0.75340100       0.72900190
    63  C          0.02743170       0.74659900       0.22900190
    64  C          0.02743170       0.25340100       0.72900190
    65  H          0.57000000       0.22840000       0.19020000
    66  H          0.57000000       0.77160000       0.69020000
    67  H          0.07000000       0.72840000       0.19020000
    68  H          0.07000000       0.27160000       0.69020000
    69  H          0.59310000       0.27280000       0.31920000
    70  H          0.59310000       0.72720000       0.81920000
    71  H          0.09310000       0.77280000       0.31920000
    72  H          0.09310000       0.22720000       0.81920000
    73  H          0.45610000       0.28290000       0.16260000
    74  H          0.45610000       0.71710000       0.66260000
    75  H          0.95610000       0.78290000       0.16260000
    76  H          0.95610000       0.21710000       0.66260000
    77  H          0.31441900       0.45261100       0.09420000
    78  H          0.31441900       0.54738900       0.59420000
    79  H          0.81441900       0.95261100       0.09420000
    80  H          0.81441900       0.04738900       0.59420000
    81  O          0.21883110       0.16799600       0.41641110
    82  O          0.21883110       0.83200400       0.91641110
    83  O          0.71883110       0.66799600       0.41641110
    84  O          0.71883110       0.33200400       0.91641110
    85  C          0.22335150       0.25187900       0.26365170
    86  C          0.22335150       0.74812100       0.76365170
    87  C          0.72335150       0.75187900       0.26365170
    88  C          0.72335150       0.24812100       0.76365170
    89  O          0.07708100       0.14688600       0.18358110
    90  O          0.07708100       0.85311400       0.68358110
    91  O          0.57708100       0.64688600       0.18358110
    92  O          0.57708100       0.35311400       0.68358110
    93  C          0.32636150       0.29752900       0.37347170
    94  C          0.32636150       0.70247100       0.87347170
    95  C          0.82636150       0.79752900       0.37347170
    96  C          0.82636150       0.20247100       0.87347170
    97  H          0.36620000       0.28450000       0.46830000
    98  H          0.36620000       0.71550000       0.96830000
    99  H          0.86620000       0.78450000       0.46830000
   100  H          0.86620000       0.21550000       0.96830000
   101  O          0.36155120       0.44392600       0.18683130
   102  O          0.36155120       0.55607400       0.68683130
   103  O          0.86155120       0.94392600       0.18683130
   104  O          0.86155120       0.05607400       0.68683130
   105  C          0.37140160       0.36141100       0.34632180
   106  C          0.37140160       0.63858900       0.84632180
   107  C          0.87140160       0.86141100       0.34632180
   108  C          0.87140160       0.13858900       0.84632180
   109  H          0.44180000       0.39190000       0.42210000
   110  H          0.44180000       0.60810000       0.92210000
   111  H          0.94180000       0.89190000       0.42210000
   112  H          0.94180000       0.10810000       0.92210000
   113  C          0.31309150       0.38097900       0.20730170
   114  C          0.31309150       0.61902100       0.70730170
   115  C          0.81309150       0.88097900       0.20730170
   116  C          0.81309150       0.11902100       0.70730170
   117  C          0.21124160       0.33532900       0.09638180
   118  C          0.21124160       0.66467100       0.59638180
   119  C          0.71124160       0.83532900       0.09638180
   120  C          0.71124160       0.16467100       0.59638180
   121  H          0.17220000       0.34820000       0.00170000
   122  H          0.17220000       0.65180000       0.50170000
   123  H          0.67220000       0.84820000       0.00170000
   124  H          0.67220000       0.15180000       0.50170000
   125  C          0.16702150       0.27109900       0.12428160
   126  C          0.16702150       0.72890100       0.62428160
   127  C          0.66702150       0.77109900       0.12428160
   128  C          0.66702150       0.22890100       0.62428160
   129  H          0.09810000       0.23990000       0.04850000
   130  H          0.09810000       0.76010000       0.54850000
   131  H          0.59810000       0.73990000       0.04850000
   132  H          0.59810000       0.26010000       0.54850000
   133  C          0.17535140       0.18607900       0.29739160
   134  C          0.17535140       0.81392100       0.79739160
   135  C          0.67535140       0.68607900       0.29739160
   136  C          0.67535140       0.31392100       0.79739160
   137  C          0.02232000       0.08252100       0.20832000
   138  C          0.02232000       0.91747900       0.70832000
   139  C          0.52232000       0.58252100       0.20832000
   140  C          0.52232000       0.41747900       0.70832000
   141  H          0.09240000       0.04480000       0.27100000
   142  H          0.09240000       0.95520000       0.77100000
   143  H          0.59240000       0.54480000       0.27100000
   144  H          0.59240000       0.45520000       0.77100000
   145  H          0.95220000       0.05760000       0.11830000
   146  H          0.95220000       0.94240000       0.61830000
   147  H          0.45220000       0.55760000       0.11830000
   148  H          0.45220000       0.44240000       0.61830000
   149  H         -0.01490000       0.10170000       0.25240000
   150  H         -0.01490000       0.89830000       0.75240000
   151  H          0.48510000       0.60170000       0.25240000
   152  H          0.48510000       0.39830000       0.75240000
   153  O          0.22115110       0.50972600       0.41253110
   154  O          0.22115110       0.49027400       0.91253110
   155  O          0.72115110       0.00972600       0.41253110
   156  O          0.72115110       0.99027400       0.91253110
   157  C          0.22975160       0.59463900       0.26297170
   158  C          0.22975160       0.40536100       0.76297170
   159  C          0.72975160       0.09463900       0.26297170
   160  C          0.72975160       0.90536100       0.76297170
   161  O          0.08110100       0.49067600       0.17903120
   162  O          0.08110100       0.50932400       0.67903120
   163  O          0.58110100       0.99067600       0.17903120
   164  O          0.58110100       0.00932400       0.67903120
   165  C          0.33506160       0.63817100       0.37468170
   166  C          0.33506160       0.36182900       0.87468170
   167  C          0.83506160       0.13817100       0.37468170
   168  C          0.83506160       0.86182900       0.87468170
   169  H          0.37550000       0.62370000       0.46910000
   170  H          0.37550000       0.37630000       0.96910000
   171  H          0.87550000       0.12370000       0.46910000
   172  H          0.87550000       0.87630000       0.96910000
   173  O          0.37288110       0.78600600       0.19206130
   174  O          0.37288110       0.21399400       0.69206130
   175  O          0.87288110       0.28600600       0.19206130
   176  O          0.87288110       0.71399400       0.69206130
   177  H          0.33030000       0.79360000       0.10530000
   178  H          0.33030000       0.20640000       0.60530000
   179  H          0.83030000       0.29360000       0.10530000
   180  H          0.83030000       0.70640000       0.60530000
   181  C          0.38128160       0.70227100       0.34935190
   182  C          0.38128160       0.29772900       0.84935190
   183  C          0.88128160       0.20227100       0.34935190
   184  C          0.88128160       0.79772900       0.84935190
   185  H          0.45290000       0.73170000       0.42600000
   186  H          0.45290000       0.26830000       0.92600000
   187  H          0.95290000       0.23170000       0.42600000
   188  H          0.95290000       0.76830000       0.92600000
   189  C          0.32228160       0.72336900       0.21102180
   190  C          0.32228160       0.27663100       0.71102180
   191  C          0.82228160       0.22336900       0.21102180
   192  C          0.82228160       0.77663100       0.71102180
   193  C          0.21799160       0.67981900       0.09857180
   194  C          0.21799160       0.32018100       0.59857180
   195  C          0.71799160       0.17981900       0.09857180
   196  C          0.71799160       0.82018100       0.59857180
   197  H          0.17820000       0.69420000       0.00430000
   198  H          0.17820000       0.30580000       0.50430000
   199  H          0.67820000       0.19420000       0.00430000
   200  H          0.67820000       0.80580000       0.50430000
   201  C          0.17236160       0.61557100       0.12439170
   202  C          0.17236160       0.38442900       0.62439170
   203  C          0.67236160       0.11557100       0.12439170
   204  C          0.67236160       0.88442900       0.62439170
   205  H          0.10180000       0.58560000       0.04770000
   206  H          0.10180000       0.41440000       0.54770000
   207  H          0.60180000       0.08560000       0.04770000
   208  H          0.60180000       0.91440000       0.54770000
   209  C          0.17955150       0.52848900       0.29451170
   210  C          0.17955150       0.47151100       0.79451170
   211  C          0.67955150       0.02848900       0.29451170
   212  C          0.67955150       0.97151100       0.79451170
   213  C          0.02695190       0.42460900       0.20112000
   214  C          0.02695190       0.57539100       0.70112000
   215  C          0.52695190       0.92460900       0.20112000
   216  C          0.52695190       0.07539100       0.70112000
   217  H          0.09530000       0.38460000       0.25430000
   218  H          0.09530000       0.61540000       0.75430000
   219  H          0.59530000       0.88460000       0.25430000
   220  H          0.59530000       0.11540000       0.75430000
   221  H          0.95130000       0.40360000       0.10960000
   222  H          0.95130000       0.59640000       0.60960000
   223  H          0.45130000       0.90360000       0.10960000
   224  H          0.45130000       0.09640000       0.60960000
   225  H         -0.00230000       0.44100000       0.25450000
   226  H         -0.00230000       0.55900000       0.75450000
   227  H          0.49770000       0.94100000       0.25450000
   228  H          0.49770000       0.05900000       0.75450000
