data_CEBGOF05
_symmetry_space_group_name_H-M    'P1'
_symmetry_Int_Tables_number       1
loop_
_symmetry_equiv_pos_site_id
_symmetry_equiv_pos_as_xyz
1 x,y,z
_cell_length_a                   17.5175
_cell_length_b                   7.260218
_cell_length_c                   6.2242
_cell_angle_alpha                90.0
_cell_angle_beta                 107.613
_cell_angle_gamma                90.0
loop_
_atom_site_label
_atom_site_type_symbol
_atom_site_fract_x
_atom_site_fract_y
_atom_site_fract_z
     1  O          0.97152000       0.31947000       0.21178000
     2  O          0.97152000       0.68053000       0.71178000
     3  O          0.47152000       0.81947000       0.21178000
     4  O          0.47152000       0.18053000       0.71178000
     5  O          0.91652000       0.18147000       0.44897000
     6  O          0.91652000       0.81853000       0.94897000
     7  O          0.41652000       0.68147000       0.44897000
     8  O          0.41652000       0.31853000       0.94897000
     9  O          0.60812000       0.26187000       0.60862000
    10  O          0.60812000       0.73813000       0.10862000
    11  O          0.10812000       0.76187000       0.60862000
    12  O          0.10812000       0.23813000       0.10862000
    13  H          0.57570000       0.19930000       0.64790000
    14  H          0.57570000       0.80070000       0.14790000
    15  H          0.07570000       0.69930000       0.64790000
    16  H          0.07570000       0.30070000       0.14790000
    17  C          0.83273000       0.24968000       0.08459000
    18  C          0.83273000       0.75032000       0.58459000
    19  C          0.33273000       0.74968000       0.08459000
    20  C          0.33273000       0.25032000       0.58459000
    21  C          0.82073000       0.32328000       0.87439000
    22  C          0.82073000       0.67672000       0.37439000
    23  C          0.32073000       0.82328000       0.87439000
    24  C          0.32073000       0.17672000       0.37439000
    25  H          0.86430000       0.37260000       0.83830000
    26  H          0.86430000       0.62740000       0.33830000
    27  H          0.36430000       0.87260000       0.83830000
    28  H          0.36430000       0.12740000       0.33830000
    29  C          0.74643000       0.32679000       0.71408900
    30  C          0.74643000       0.67321000       0.21408900
    31  C          0.24643000       0.82679000       0.71408900
    32  C          0.24643000       0.17321000       0.21408900
    33  H          0.73960000       0.37510000       0.57120000
    34  H          0.73960000       0.62490000       0.07120000
    35  H          0.23960000       0.87510000       0.57120000
    36  H          0.23960000       0.12490000       0.07120000
    37  C          0.68193000       0.25528000       0.77391000
    38  C          0.68193000       0.74472000       0.27391000
    39  C          0.18193000       0.75528000       0.77391000
    40  C          0.18193000       0.24472000       0.27391000
    41  C          0.69143000       0.17879000      -0.01901000
    42  C          0.69143000       0.82121000       0.48099000
    43  C          0.19143000       0.67879000      -0.01901000
    44  C          0.19143000       0.32121000       0.48099000
    45  H          0.64750000       0.13100000       0.01720000
    46  H          0.64750000       0.86900000       0.51720000
    47  H          0.14750000       0.63100000       0.01720000
    48  H          0.14750000       0.36900000       0.51720000
    49  C          0.76743000       0.17289000       0.13721000
    50  C          0.76743000       0.82711000       0.63721000
    51  C          0.26743000       0.67289000       0.13721000
    52  C          0.26743000       0.32711000       0.63721000
    53  H          0.77480000       0.11760000       0.27680000
    54  H          0.77480000       0.88240000       0.77680000
    55  H          0.27480000       0.61760000       0.27680000
    56  H          0.27480000       0.38240000       0.77680000
    57  C          0.91323000       0.25559000       0.24901000
    58  C          0.91323000       0.74441000       0.74901000
    59  C          0.41323000       0.75559000       0.24901000
    60  C          0.41323000       0.24441000       0.74901000
    61  C         -0.00836000       0.18981100       0.62441300
    62  C         -0.00836000       0.81018900       0.12441300
    63  C          0.49164000       0.68981100       0.62441300
    64  C          0.49164000       0.31018900       0.12441300
    65  H          0.03210000       0.12910000       0.57520000
    66  H          0.03210000       0.87090000       0.07520000
    67  H          0.53210000       0.62910000       0.57520000
    68  H          0.53210000       0.37090000       0.07520000
    69  H          0.98660000       0.12970000       0.75680000
    70  H          0.98660000       0.87030000       0.25680000
    71  H          0.48660000       0.62970000       0.75680000
    72  H          0.48660000       0.37030000       0.25680000
    73  H          0.00640000       0.31620000       0.65860000
    74  H          0.00640000       0.68380000       0.15860000
    75  H          0.50640000       0.81620000       0.65860000
    76  H          0.50640000       0.18380000       0.15860000
