data_CEBGOF04
_symmetry_space_group_name_H-M    'P1'
_symmetry_Int_Tables_number       1
loop_
_symmetry_equiv_pos_site_id
_symmetry_equiv_pos_as_xyz
1 x,y,z
_cell_length_a                   5.98456
_cell_length_b                   8.33846
_cell_length_c                   14.420912
_cell_angle_alpha                90.0
_cell_angle_beta                 96.5269
_cell_angle_gamma                90.0
loop_
_atom_site_label
_atom_site_type_symbol
_atom_site_fract_x
_atom_site_fract_y
_atom_site_fract_z
     1  O          0.53823000       0.19644170       0.12340110
     2  O          0.46177000       0.69644170       0.37659890
     3  O          0.46177000       0.80355830       0.87659890
     4  O          0.53823000       0.30355830       0.62340110
     5  O          0.21152000       0.31823160       0.07692900
     6  O          0.78848000       0.81823160       0.42307100
     7  O          0.78848000       0.68176840       0.92307100
     8  O          0.21152000       0.18176840       0.57692900
     9  O          0.78583000       0.93320180       0.18431100
    10  O          0.21417000       0.43320180       0.31568900
    11  O          0.21417000       0.06679820       0.81568900
    12  O          0.78583000       0.56679820       0.68431100
    13  H          0.69540000       0.00530000       0.16811700
    14  H          0.30460000       0.50530000       0.33188300
    15  H          0.30460000      -0.00530000       0.83188300
    16  H          0.69540000       0.49470000       0.66811700
    17  C          0.51683000       0.48192000       0.12895120
    18  C          0.48317000       0.98192000       0.37104880
    19  C          0.48317000       0.51808000       0.87104880
    20  C          0.51683000       0.01808000       0.62895120
    21  C          0.73763000       0.50252000       0.16797140
    22  C          0.26237000       0.00252000       0.33202860
    23  C          0.26237000       0.49748000       0.83202860
    24  C          0.73763000      -0.00252000       0.66797140
    25  H          0.83010000       0.41130000       0.18230000
    26  H          0.16990000       0.91130000       0.31770000
    27  H          0.16990000       0.58870000       0.81770000
    28  H          0.83010000       0.08870000       0.68230000
    29  C          0.82424000       0.65333000       0.18616130
    30  C          0.17576000       0.15333000       0.31383870
    31  C          0.17576000       0.34667000       0.81383870
    32  C          0.82424000       0.84667000       0.68616130
    33  H         -0.02440000       0.66580000       0.21310000
    34  H          0.02440000       0.16580000       0.28690000
    35  H          0.02440000       0.33420000       0.78690000
    36  H         -0.02440000       0.83420000       0.71310000
    37  C          0.69093000       0.78662000       0.16528130
    38  C          0.30907000       0.28662000       0.33471870
    39  C          0.30907000       0.21338000       0.83471870
    40  C          0.69093000       0.71338000       0.66528130
    41  C          0.46984000       0.76842000       0.12646140
    42  C          0.53016000       0.26842000       0.37353860
    43  C          0.53016000       0.23158000       0.87353860
    44  C          0.46984000       0.73158000       0.62646140
    45  H          0.37740000       0.85990000       0.11270000
    46  H          0.62260000       0.35990000       0.38730000
    47  H          0.62260000       0.14010000       0.88730000
    48  H          0.37740000       0.64010000       0.61270000
    49  C          0.38473000       0.61702000       0.10799130
    50  C          0.61527000       0.11702000       0.39200870
    51  C          0.61527000       0.38298000       0.89200870
    52  C          0.38473000       0.88298000       0.60799130
    53  H          0.23360000       0.60470000       0.08060000
    54  H          0.76640000       0.10470000       0.41940000
    55  H          0.76640000       0.39530000       0.91940000
    56  H          0.23360000       0.89530000       0.58060000
    57  C          0.42874000       0.31892000       0.10995130
    58  C          0.57126000       0.81892000       0.39004870
    59  C          0.57126000       0.68108000       0.89004870
    60  C          0.42874000       0.18108000       0.60995130
    61  C          0.11114000       0.16373000       0.05687160
    62  C          0.88886000       0.66373000       0.44312840
    63  C          0.88886000       0.83627000       0.94312840
    64  C          0.11114000       0.33627000       0.55687160
    65  H          0.18590000       0.11080000       0.00810000
    66  H          0.81410000       0.61080000       0.49190000
    67  H          0.81410000       0.88920000      -0.00810000
    68  H          0.18590000       0.38920000       0.50810000
    69  H          0.95090000       0.17710000       0.03530000
    70  H          0.04910000       0.67710000       0.46470000
    71  H          0.04910000       0.82290000       0.96470000
    72  H          0.95090000       0.32290000       0.53530000
    73  H          0.12800000       0.09790000       0.11350000
    74  H          0.87200000       0.59790000       0.38650000
    75  H          0.87200000       0.90210000       0.88650000
    76  H          0.12800000       0.40210000       0.61350000
