data_CEKGUU02
_symmetry_space_group_name_H-M    'P1'
_symmetry_Int_Tables_number       1
loop_
_symmetry_equiv_pos_site_id
_symmetry_equiv_pos_as_xyz
1 x,y,z
_cell_length_a                   5.70157
_cell_length_b                   9.40719
_cell_length_c                   7.56677
_cell_angle_alpha                90.0
_cell_angle_beta                 106.91311
_cell_angle_gamma                90.0
loop_
_atom_site_label
_atom_site_type_symbol
_atom_site_fract_x
_atom_site_fract_y
_atom_site_fract_z
     1  N          0.46933000       0.69661000       0.37503000
     2  N          0.03067000       0.19661000       0.12497000
     3  N          0.53067000       0.30339000       0.62497000
     4  N         -0.03067000       0.80339000       0.87503000
     5  C          0.21223000       0.69717000       0.36422000
     6  C          0.28777000       0.19717000       0.13578000
     7  C          0.78777000       0.30283000       0.63578000
     8  C          0.71223000       0.80283000       0.86422000
     9  H          0.11560000       0.70040000       0.23700000
    10  H          0.38440000       0.20040000       0.26300000
    11  H          0.88440000       0.29960000       0.76300000
    12  H          0.61560000       0.79960000       0.73700000
    13  H          0.17660000       0.77890000       0.42780000
    14  H          0.32340000       0.27890000       0.07220000
    15  H          0.82340000       0.22110000       0.57220000
    16  H          0.67660000       0.72110000       0.92780000
    17  H          0.17340000       0.61230000       0.42060000
    18  H          0.32660000       0.11230000       0.07940000
    19  H          0.82660000       0.38770000       0.57940000
    20  H          0.67340000       0.88770000       0.92060000
    21  C          0.52986000       0.57781400       0.27705000
    22  C         -0.02986000       0.07781400       0.22295000
    23  C          0.47014000       0.42218600       0.72295000
    24  C          0.02986000       0.92218600       0.77705000
    25  H          0.43350000       0.58180000       0.14990000
    26  H          0.06650000       0.08180000       0.35010000
    27  H          0.56650000       0.41820000       0.85010000
    28  H          0.93350000       0.91820000       0.64990000
    29  H          0.49570000       0.49080000       0.33120000
    30  H          0.00430000      -0.00920000       0.16880000
    31  H          0.50430000       0.50920000       0.66880000
    32  H         -0.00430000       0.00920000       0.83120000
    33  H          0.70070000       0.58140000       0.28460000
    34  H          0.79930000       0.08140000       0.21540000
    35  H          0.29930000       0.41860000       0.71540000
    36  H          0.20070000       0.91860000       0.78460000
    37  C          0.53666000       0.83411500       0.30437000
    38  C          0.96334000       0.33411500       0.19563000
    39  C          0.46334000       0.16588500       0.69563000
    40  C          0.03666000       0.66588500       0.80437000
    41  H          0.43970000       0.84720000       0.17840000
    42  H          0.06030000       0.34720000       0.32160000
    43  H          0.56030000       0.15280000       0.82160000
    44  H          0.93970000       0.65280000       0.67840000
    45  H          0.70720000       0.83270000       0.31060000
    46  H          0.79280000       0.33270000       0.18940000
    47  H          0.29280000       0.16730000       0.68940000
    48  H          0.20720000       0.66730000       0.81060000
    49  H          0.50610000       0.91080000       0.37840000
    50  H         -0.00610000       0.41080000       0.12160000
    51  H          0.49390000       0.08920000       0.62160000
    52  H          0.00610000       0.58920000       0.87840000
