data_CEKGUU06
_symmetry_space_group_name_H-M    'P1'
_symmetry_Int_Tables_number       1
loop_
_symmetry_equiv_pos_site_id
_symmetry_equiv_pos_as_xyz
1 x,y,z
_cell_length_a                   5.3973
_cell_length_b                   8.8993
_cell_length_c                   3.814115
_cell_angle_alpha                90.0
_cell_angle_beta                 109.264
_cell_angle_gamma                90.0
loop_
_atom_site_label
_atom_site_type_symbol
_atom_site_fract_x
_atom_site_fract_y
_atom_site_fract_z
     1  N          0.40128000       0.25000000       0.12021200
     2  N          0.59872000       0.75000000       0.87978800
     3  C          0.66608000       0.25000000       0.39291400
     4  C          0.33392000       0.75000000       0.60708600
     5  H          0.65490000       0.25000000       0.63890000
     6  H          0.34510000       0.75000000       0.36110000
     7  H          0.75840000       0.33810000       0.35920000
     8  H          0.24160000       0.83810000       0.64080000
     9  H          0.24160000       0.66190000       0.64080000
    10  H          0.75840000       0.16190000       0.35920000
    11  C          0.25887000       0.11775000       0.16301200
    12  C          0.74113000       0.61775000       0.83698800
    13  C          0.74113000       0.88225000       0.83698800
    14  C          0.25887000       0.38225000       0.16301200
    15  H          0.24320000       0.11720000       0.40660000
    16  H          0.75680000       0.61720000       0.59340000
    17  H          0.75680000       0.88280000       0.59340000
    18  H          0.24320000       0.38280000       0.40660000
    19  H          0.35140000       0.02950000       0.13120000
    20  H          0.64860000       0.52950000       0.86880000
    21  H          0.64860000       0.97050000       0.86880000
    22  H          0.35140000       0.47050000       0.13120000
    23  H          0.08690000       0.11860000      -0.02040000
    24  H          0.91310000       0.61860000       0.02040000
    25  H          0.91310000       0.88140000       0.02040000
    26  H          0.08690000       0.38140000      -0.02040000
