data_CELBEA02
_symmetry_space_group_name_H-M    'P1'
_symmetry_Int_Tables_number       1
loop_
_symmetry_equiv_pos_site_id
_symmetry_equiv_pos_as_xyz
1 x,y,z
_cell_length_a                   9.167018
_cell_length_b                   13.0233
_cell_length_c                   12.1722
_cell_angle_alpha                90.0
_cell_angle_beta                 93.973
_cell_angle_gamma                90.0
loop_
_atom_site_label
_atom_site_type_symbol
_atom_site_fract_x
_atom_site_fract_y
_atom_site_fract_z
     1  S          0.08338500       0.35087300       0.92865300
     2  S          0.41661500       0.85087300       0.57134700
     3  S          0.91661500       0.64912700       0.07134700
     4  S          0.58338500       0.14912700       0.42865300
     5  N          0.30912000       0.24156110       0.72955140
     6  N          0.19088000       0.74156110       0.77044860
     7  N          0.69088000       0.75843890       0.27044860
     8  N          0.80912000       0.25843890       0.22955140
     9  N          0.09034180       0.54174100       0.85958120
    10  N          0.40965820       0.04174100       0.64041880
    11  N          0.90965820       0.45825900       0.14041880
    12  N          0.59034180       0.95825900       0.35958120
    13  H          0.11060000       0.58820000       0.81280000
    14  H          0.38940000       0.08820000       0.68720000
    15  H          0.88940000       0.41180000       0.18720000
    16  H          0.61060000       0.91180000       0.31280000
    17  H          0.04950000       0.55850000       0.91850000
    18  H          0.45050000       0.05850000       0.58150000
    19  H          0.95050000       0.44150000       0.08150000
    20  H          0.54950000       0.94150000       0.41850000
    21  N          0.38319170       0.47951110       0.22219120
    22  N          0.11680830       0.97951110       0.27780880
    23  N          0.61680830       0.52048890       0.77780880
    24  N          0.88319170       0.02048890       0.72219120
    25  C          0.24136190       0.47803120       0.54408140
    26  C          0.25863810       0.97803120       0.95591860
    27  C          0.75863810       0.52196880       0.45591860
    28  C          0.74136190       0.02196880       0.04408140
    29  C          0.19542000       0.55290140       0.46559150
    30  C          0.30458000       0.05290140       0.03440850
    31  C          0.80458000       0.44709860       0.53440850
    32  C          0.69542000       0.94709860       0.96559150
    33  H          0.13270000       0.60460000       0.48610000
    34  H          0.36730000       0.10460000       0.01390000
    35  H          0.86730000       0.39540000       0.51390000
    36  H          0.63270000       0.89540000       0.98610000
    37  C          0.23902000       0.55270150       0.36095160
    38  C          0.26098000       0.05270150       0.13904840
    39  C          0.76098000       0.44729850       0.63904840
    40  C          0.73902000       0.94729850       0.86095160
    41  H          0.20240000       0.60220000       0.31130000
    42  H          0.29760000       0.10220000       0.18870000
    43  H          0.79760000       0.39780000       0.68870000
    44  H          0.70240000       0.89780000       0.81130000
    45  C          0.33829190       0.47901120       0.32654140
    46  C          0.16170810       0.97901120       0.17345860
    47  C          0.66170810       0.52098880       0.67345860
    48  C          0.83829190       0.02098880       0.82654140
    49  C          0.38953190       0.40580120       0.40595130
    50  C          0.11046810       0.90580120       0.09404870
    51  C          0.61046810       0.59419880       0.59404870
    52  C          0.88953190       0.09419880       0.90595130
    53  H          0.45740000       0.35700000       0.38690000
    54  H          0.04260000       0.85700000       0.11310000
    55  H          0.54260000       0.64300000       0.61310000
    56  H          0.95740000       0.14300000       0.88690000
    57  C          0.34196190       0.40492120       0.50953140
    58  C          0.15803810       0.90492120      -0.00953140
    59  C          0.65803810       0.59507880       0.49046860
    60  C          0.84196190       0.09507880       0.00953140
    61  H          0.37690000       0.35470000       0.55890000
    62  H          0.12310000       0.85470000       0.94110000
    63  H          0.62310000       0.64530000       0.44110000
    64  H          0.87690000       0.14530000       0.05890000
    65  C          0.18521180       0.48488120       0.65037140
    66  C          0.31478820       0.98488120       0.84962860
    67  C          0.81478820       0.51511880       0.34962860
    68  C          0.68521180       0.01511880       0.15037140
    69  H          0.13420000       0.54530000       0.66150000
    70  H          0.36580000       0.04530000       0.83850000
    71  H          0.86580000       0.45470000       0.33850000
    72  H          0.63420000       0.95470000       0.16150000
    73  C          0.19161170       0.42019110       0.73893130
    74  C          0.30838830       0.92019110       0.76106870
    75  C          0.80838830       0.57980890       0.26106870
    76  C          0.69161170       0.07980890       0.23893130
    77  C          0.25688180       0.32041110       0.73484130
    78  C          0.24311820       0.82041110       0.76515870
    79  C          0.74311820       0.67958890       0.26515870
    80  C          0.75688180       0.17958890       0.23484130
    81  C          0.12203170       0.44415110       0.84082120
    82  C          0.37796830       0.94415110       0.65917880
    83  C          0.87796830       0.55584890       0.15917880
    84  C          0.62203170       0.05584890       0.34082120
    85  C          0.31102000       0.54304150       0.13463150
    86  C          0.18898000       0.04304150       0.36536850
    87  C          0.68898000       0.45695850       0.86536850
    88  C          0.81102000       0.95695850       0.63463150
    89  H          0.21010000       0.55420000       0.15080000
    90  H          0.28990000       0.05420000       0.34920000
    91  H          0.78990000       0.44580000       0.84920000
    92  H          0.71010000       0.94580000       0.65080000
    93  H          0.31060000       0.50610000       0.06540000
    94  H          0.18940000       0.00610000       0.43460000
    95  H          0.68940000       0.49390000       0.93460000
    96  H          0.81060000      -0.00610000       0.56540000
    97  C          0.38393000       0.64552180       0.12182000
    98  C          0.11607000       0.14552180       0.37818000
    99  C          0.61607000       0.35447820       0.87818000
   100  C          0.88393000       0.85447820       0.62182000
   101  H          0.33210000       0.68360000       0.06380000
   102  H          0.16790000       0.18360000       0.43620000
   103  H          0.66790000       0.31640000       0.93620000
   104  H          0.83210000       0.81640000       0.56380000
   105  H          0.48310000       0.63510000       0.10380000
   106  H          0.01690000       0.13510000       0.39620000
   107  H          0.51690000       0.36490000       0.89620000
   108  H          0.98310000       0.86490000       0.60380000
   109  H          0.38280000       0.68320000       0.18950000
   110  H          0.11720000       0.18320000       0.31050000
   111  H          0.61720000       0.31680000       0.81050000
   112  H          0.88280000       0.81680000       0.68950000
   113  C          0.49122000       0.40610130       0.18761150
   114  C          0.00878000       0.90610130       0.31238850
   115  C          0.50878000       0.59389870       0.81238850
   116  C         -0.00878000       0.09389870       0.68761150
   117  H          0.56240000       0.39300000       0.24870000
   118  H          0.93760000       0.89300000       0.25130000
   119  H          0.43760000       0.60700000       0.75130000
   120  H          0.06240000       0.10700000       0.74870000
   121  H          0.54250000       0.43570000       0.12820000
   122  H          0.95750000       0.93570000       0.37180000
   123  H          0.45750000       0.56430000       0.87180000
   124  H          0.04250000       0.06430000       0.62820000
   125  C          0.42243000       0.30572150       0.14940180
   126  C          0.07757000       0.80572150       0.35059820
   127  C          0.57757000       0.69427850       0.85059820
   128  C          0.92243000       0.19427850       0.64940180
   129  H          0.49600000       0.26160000       0.12270000
   130  H          0.00400000       0.76160000       0.37730000
   131  H          0.50400000       0.73840000       0.87730000
   132  H         -0.00400000       0.23840000       0.62270000
   133  H          0.34840000       0.31870000       0.09130000
   134  H          0.15160000       0.81870000       0.40870000
   135  H          0.65160000       0.68130000       0.90870000
   136  H          0.84840000       0.18130000       0.59130000
   137  H          0.37900000       0.27310000       0.20990000
   138  H          0.12100000       0.77310000       0.29010000
   139  H          0.62100000       0.72690000       0.79010000
   140  H          0.87900000       0.22690000       0.70990000
