data_CELBEA
_symmetry_space_group_name_H-M    'P1'
_symmetry_Int_Tables_number       1
loop_
_symmetry_equiv_pos_site_id
_symmetry_equiv_pos_as_xyz
1 x,y,z
_cell_length_a                   10.755511
_cell_length_b                   12.364613
_cell_length_c                   10.86801
_cell_angle_alpha                90.0
_cell_angle_beta                 104.2547
_cell_angle_gamma                90.0
loop_
_atom_site_label
_atom_site_type_symbol
_atom_site_fract_x
_atom_site_fract_y
_atom_site_fract_z
     1  S          0.04489000       0.16537000       0.91325000
     2  S          0.45511000       0.66537000       0.58675000
     3  S          0.95511000       0.83463000       0.08675000
     4  S          0.54489000       0.33463000       0.41325000
     5  H          0.13400000       0.92200000       0.84400000
     6  H          0.36600000       0.42200000       0.65600000
     7  H          0.86600000       0.07800000       0.15600000
     8  H          0.63400000       0.57800000       0.34400000
     9  H          0.06000000       0.94600000       0.93600000
    10  H          0.44000000       0.44600000       0.56400000
    11  H          0.94000000       0.05400000       0.06400000
    12  H          0.56000000       0.55400000       0.43600000
    13  C          0.09940000       0.06580000       0.83620000
    14  C          0.40060000       0.56580000       0.66380000
    15  C          0.90060000       0.93420000       0.16380000
    16  C          0.59940000       0.43420000       0.33620000
    17  N          0.09190000       0.96200000       0.86760000
    18  N          0.40810000       0.46200000       0.63240000
    19  N          0.90810000       0.03800000       0.13240000
    20  N          0.59190000       0.53800000       0.36760000
    21  C          0.15750000       0.08650000       0.73040000
    22  C          0.34250000       0.58650000       0.76960000
    23  C          0.84250000       0.91350000       0.26960000
    24  C          0.65750000       0.41350000       0.23040000
    25  C          0.20100000       0.19610000       0.72060000
    26  C          0.29900000       0.69610000       0.77940000
    27  C          0.79900000       0.80390000       0.27940000
    28  C          0.70100000       0.30390000       0.22060000
    29  N          0.23700000       0.28060000       0.70600000
    30  N          0.26300000       0.78060000       0.79400000
    31  N          0.76300000       0.71940000       0.29400000
    32  N          0.73700000       0.21940000       0.20600000
    33  C          0.16530000       0.01060000       0.64200000
    34  C          0.33470000       0.51060000       0.85800000
    35  C          0.83470000      -0.01060000       0.35800000
    36  C          0.66530000       0.48940000       0.14200000
    37  C          0.22290000       0.00820000       0.53700000
    38  C          0.27710000       0.50820000       0.96300000
    39  C          0.77710000      -0.00820000       0.46300000
    40  C          0.72290000       0.49180000       0.03700000
    41  C          0.19770000       0.91520000       0.45850000
    42  C          0.30230000       0.41520000       0.04150000
    43  C          0.80230000       0.08480000       0.54150000
    44  C          0.69770000       0.58480000       0.95850000
    45  C          0.24810000       0.90150000       0.35640000
    46  C          0.25190000       0.40150000       0.14360000
    47  C          0.75190000       0.09850000       0.64360000
    48  C          0.74810000       0.59850000       0.85640000
    49  C          0.33310000       0.97820000       0.32680000
    50  C          0.16690000       0.47820000       0.17320000
    51  C          0.66690000       0.02180000       0.67320000
    52  C          0.83310000       0.52180000       0.82680000
    53  C          0.36170000       0.07130000       0.40540000
    54  C          0.13830000       0.57130000       0.09460000
    55  C          0.63830000       0.92870000       0.59460000
    56  C          0.86170000       0.42870000       0.90540000
    57  C          0.30750000       0.08450000       0.50640000
    58  C          0.19250000       0.58450000      -0.00640000
    59  C          0.69250000       0.91550000       0.49360000
    60  C          0.80750000       0.41550000       0.00640000
    61  N          0.38730000       0.96300000       0.22690000
    62  N          0.11270000       0.46300000       0.27310000
    63  N          0.61270000       0.03700000       0.77310000
    64  N          0.88730000       0.53700000       0.72690000
    65  C          0.47750000       0.04130000       0.19540000
    66  C          0.02250000       0.54130000       0.30460000
    67  C          0.52250000       0.95870000       0.80460000
    68  C          0.97750000       0.45870000       0.69540000
    69  C          0.41030000       0.12600000       0.10260000
    70  C          0.08970000       0.62600000       0.39740000
    71  C          0.58970000       0.87400000       0.89740000
    72  C          0.91030000       0.37400000       0.60260000
    73  C          0.35020000       0.87060000       0.13930000
    74  C          0.14980000       0.37060000       0.36070000
    75  C          0.64980000       0.12940000       0.86070000
    76  C          0.85020000       0.62940000       0.63930000
    77  C          0.42950000       0.77190000       0.18610000
    78  C          0.07050000       0.27190000       0.31390000
    79  C          0.57050000       0.22810000       0.81390000
    80  C          0.92950000       0.72810000       0.68610000
    81  H          0.11760000       0.93590000       0.65400000
    82  H          0.38240000       0.43590000       0.84600000
    83  H          0.88240000       0.06410000       0.34600000
    84  H          0.61760000       0.56410000       0.15400000
    85  H          0.13630000       0.85290000       0.48070000
    86  H          0.36370000       0.35290000       0.01930000
    87  H          0.86370000       0.14710000       0.51930000
    88  H          0.63630000       0.64710000       0.98070000
    89  H          0.22260000       0.83080000       0.29720000
    90  H          0.27740000       0.33080000       0.20280000
    91  H          0.77740000       0.16920000       0.70280000
    92  H          0.72260000       0.66920000       0.79720000
    93  H          0.42630000       0.13200000       0.38550000
    94  H          0.07370000       0.63200000       0.11450000
    95  H          0.57370000       0.86800000       0.61450000
    96  H          0.92630000       0.36800000       0.88550000
    97  H          0.33080000       0.15610000       0.56450000
    98  H          0.16920000       0.65610000       0.93550000
    99  H          0.66920000       0.84390000       0.43550000
   100  H          0.83080000       0.34390000       0.06450000
   101  H          0.52880000       0.08100000       0.28150000
   102  H          0.97120000       0.58100000       0.21850000
   103  H          0.47120000       0.91900000       0.71850000
   104  H          0.02880000       0.41900000       0.78150000
   105  H          0.54470000      -0.00160000       0.15400000
   106  H          0.95530000       0.49840000       0.34600000
   107  H          0.45530000       0.00160000       0.84600000
   108  H          0.04470000       0.50160000       0.65400000
   109  H          0.47110000       0.18730000       0.07720000
   110  H          0.02890000       0.68730000       0.42280000
   111  H          0.52890000       0.81270000       0.92280000
   112  H          0.97110000       0.31270000       0.57720000
   113  H          0.34840000       0.16260000       0.15540000
   114  H          0.15160000       0.66260000       0.34460000
   115  H          0.65160000       0.83740000       0.84460000
   116  H          0.84840000       0.33740000       0.65540000
   117  H          0.35260000       0.08910000       0.01750000
   118  H          0.14740000       0.58910000       0.48250000
   119  H          0.64740000       0.91090000       0.98250000
   120  H          0.85260000       0.41090000       0.51750000
   121  H          0.25040000       0.85190000       0.13100000
   122  H          0.24960000       0.35190000       0.36900000
   123  H          0.74960000       0.14810000       0.86900000
   124  H          0.75040000       0.64810000       0.63100000
   125  H          0.36360000       0.89270000       0.04730000
   126  H          0.13640000       0.39270000       0.45270000
   127  H          0.63640000       0.10730000       0.95270000
   128  H          0.86360000       0.60730000       0.54730000
   129  H          0.39790000       0.71710000       0.10730000
   130  H          0.10210000       0.21710000       0.39270000
   131  H          0.60210000       0.28290000       0.89270000
   132  H          0.89790000       0.78290000       0.60730000
   133  H          0.41600000       0.73480000       0.27180000
   134  H          0.08400000       0.23480000       0.22820000
   135  H          0.58400000       0.26520000       0.72820000
   136  H          0.91600000       0.76520000       0.77180000
   137  H          0.52990000       0.79020000       0.19750000
   138  H          0.97010000       0.29020000       0.30250000
   139  H          0.47010000       0.20980000       0.80250000
   140  H          0.02990000       0.70980000       0.69750000
