data_CELBEA01
_symmetry_space_group_name_H-M    'P1'
_symmetry_Int_Tables_number       1
loop_
_symmetry_equiv_pos_site_id
_symmetry_equiv_pos_as_xyz
1 x,y,z
_cell_length_a                   8.7533
_cell_length_b                   8.8903
_cell_length_c                   10.8304
_cell_angle_alpha                85.443
_cell_angle_beta                 69.762
_cell_angle_gamma                63.653
loop_
_atom_site_label
_atom_site_type_symbol
_atom_site_fract_x
_atom_site_fract_y
_atom_site_fract_z
     1  S          0.34596600       0.02000600       0.23115500
     2  S          0.65403400       0.97999400       0.76884500
     3  N          0.94593000       0.60252000       0.13473160
     4  N          0.05407000       0.39748000       0.86526840
     5  N          0.27682000       0.21362000       0.04250150
     6  N          0.72318000       0.78638000       0.95749850
     7  H          0.21330000       0.30430000       0.01360000
     8  H          0.78670000       0.69570000      -0.01360000
     9  H          0.37220000       0.13490000      -0.01190000
    10  H          0.62780000       0.86510000       0.01190000
    11  N          0.32237180       0.78661180       0.76587130
    12  N          0.67762820       0.21338820       0.23412870
    13  C          0.80862000       0.44852000       0.47908160
    14  C          0.19138000       0.55148000       0.52091840
    15  C          0.72542000       0.39602000       0.59772160
    16  C          0.27458000       0.60398000       0.40227840
    17  H          0.78000000       0.28320000       0.61330000
    18  H          0.22000000       0.71680000       0.38670000
    19  C          0.56742000       0.50342000       0.69165170
    20  C          0.43258000       0.49658000       0.30834830
    21  H          0.51670000       0.46180000       0.76830000
    22  H          0.48330000       0.53820000       0.23170000
    23  C          0.47972000       0.67642000       0.67435160
    24  C          0.52028000       0.32358000       0.32564840
    25  C          0.56392000       0.73032000       0.55641170
    26  C          0.43608000       0.26968000       0.44358830
    27  H          0.51170000       0.84350000       0.54150000
    28  H          0.48830000       0.15650000       0.45850000
    29  C          0.72012000       0.62102000       0.46323170
    30  C          0.27988000       0.37898000       0.53676830
    31  H          0.77020000       0.66210000       0.38600000
    32  H          0.22980000       0.33790000       0.61400000
    33  C          0.97222000       0.32692000       0.38408160
    34  C          0.02778000       0.67308000       0.61591840
    35  H          0.02570000       0.22320000       0.41580000
    36  H          0.97430000       0.77680000       0.58420000
    37  C          0.06232000       0.33738190       0.25591160
    38  C          0.93768000       0.66261810       0.74408840
    39  C          0.99492000       0.48652000       0.19119170
    40  C          0.00508000       0.51348000       0.80880830
    41  C          0.22772000       0.19502000       0.17130170
    42  C          0.77228000       0.80498000       0.82869830
    43  C          0.23252000       0.73322000       0.88957170
    44  C          0.76748000       0.26678000       0.11042830
    45  H          0.25180000       0.61910000       0.87400000
    46  H          0.74820000       0.38090000       0.12600000
    47  H          0.10270000       0.80580000       0.91820000
    48  H          0.89730000       0.19420000       0.08180000
    49  C          0.30093000       0.73893000      -0.00278000
    50  C          0.69907000       0.26107000       0.00278000
    51  H          0.24100000       0.69920000       0.07510000
    52  H          0.75900000       0.30080000       0.92490000
    53  H          0.27600000       0.85280000       0.01660000
    54  H          0.72400000       0.14720000       0.98340000
    55  H          0.42970000       0.66840000       0.96910000
    56  H          0.57030000       0.33160000       0.03090000
    57  C          0.24282000       0.96892000       0.75219180
    58  C          0.75718000       0.03108000       0.24780820
    59  H          0.34040000       0.00090000       0.71090000
    60  H          0.65960000      -0.00090000       0.28910000
    61  H          0.17390000       0.02860000       0.83950000
    62  H          0.82610000       0.97140000       0.16050000
    63  C          0.12083000       0.02283000       0.67232000
    64  C          0.87917000       0.97717000       0.32768000
    65  H          0.07120000       0.14280000       0.66880000
    66  H          0.92880000       0.85720000       0.33120000
    67  H          0.02370000      -0.00830000       0.71250000
    68  H          0.97630000       0.00830000       0.28750000
    69  H          0.18930000       0.96840000       0.58430000
    70  H          0.81070000       0.03160000       0.41570000
