data_CEMJOT
_symmetry_space_group_name_H-M    'P1'
_symmetry_Int_Tables_number       1
loop_
_symmetry_equiv_pos_site_id
_symmetry_equiv_pos_as_xyz
1 x,y,z
_cell_length_a                   8.4483
_cell_length_b                   15.0728
_cell_length_c                   8.4376
_cell_angle_alpha                99.445
_cell_angle_beta                 94.715
_cell_angle_gamma                101.594
loop_
_atom_site_label
_atom_site_type_symbol
_atom_site_fract_x
_atom_site_fract_y
_atom_site_fract_z
     1  C          0.28300000       0.64300000       0.09800000
     2  C          0.71700000       0.35700000       0.90200000
     3  C          0.32800000       0.71800000       0.02200000
     4  C          0.67200000       0.28200000       0.97800000
     5  C          0.22100000       0.76700000       0.97800000
     6  C          0.77900000       0.23300000       0.02200000
     7  C          0.05300000       0.73800000      -0.01100000
     8  C          0.94700000       0.26200000       0.01100000
     9  C          0.01200000       0.66900000       0.07000000
    10  C         -0.01200000       0.33100000       0.93000000
    11  C          0.12000000       0.61500000       0.12400000
    12  C          0.88000000       0.38500000       0.87600000
    13  C          0.40800000       0.59600000       0.14400000
    14  C          0.59200000       0.40400000       0.85600000
    15  C          0.39500000       0.52900000       0.22700000
    16  C          0.60500000       0.47100000       0.77300000
    17  C          0.54300000       0.48800000       0.27000000
    18  C          0.45700000       0.51200000       0.73000000
    19  C          0.41000000       0.87700000       0.86600000
    20  C          0.59000000       0.12300000       0.13400000
    21  C          0.77200000       0.75700000       0.95400000
    22  C          0.22800000       0.24300000       0.04600000
    23  O          0.51000000       0.41600000       0.33200000
    24  O          0.49000000       0.58400000       0.66800000
    25  O          0.67700000       0.52500000       0.24100000
    26  O          0.32300000       0.47500000       0.75900000
    27  O          0.24400000       0.84300000       0.90100000
    28  O          0.75600000       0.15700000       0.09900000
    29  O          0.95400000       0.79600000       0.95500000
    30  O          0.04600000       0.20400000       0.04500000
    31  H          0.45700000       0.73900000      -0.00200000
    32  H          0.54300000       0.26100000       0.00200000
    33  H          0.88100000       0.64800000       0.08900000
    34  H          0.11900000       0.35200000       0.91100000
    35  H          0.07800000       0.55400000       0.17800000
    36  H          0.92200000       0.44600000       0.82200000
    37  H          0.52500000       0.62400000       0.10700000
    38  H          0.47500000       0.37600000       0.89300000
    39  H          0.27300000       0.49400000       0.24700000
    40  H          0.72700000       0.50600000       0.75300000
    41  H          0.41500000       0.93700000       0.80600000
    42  H          0.58500000       0.06300000       0.19400000
    43  H          0.45500000       0.82500000       0.78700000
    44  H          0.54500000       0.17500000       0.21300000
    45  H          0.49400000       0.90000000       0.97700000
    46  H          0.50600000       0.10000000       0.02300000
    47  H          0.70300000       0.80700000       0.92200000
    48  H          0.29700000       0.19300000       0.07800000
    49  H          0.74600000       0.73900000       0.06500000
    50  H          0.25400000       0.26100000       0.93500000
    51  H          0.73500000       0.69500000       0.85600000
    52  H          0.26500000       0.30500000       0.14400000
    53  H          0.61300000       0.38500000       0.37100000
    54  H          0.38700000       0.61500000       0.62900000
    55  C          0.14100000       0.21700000       0.54600000
    56  C          0.85900000       0.78300000       0.45400000
    57  C          0.10300000       0.14000000       0.62300000
    58  C          0.89700000       0.86000000       0.37700000
    59  C          0.22100000       0.09500000       0.66900000
    60  C          0.77900000       0.90500000       0.33100000
    61  C          0.38500000       0.12900000       0.62000000
    62  C          0.61500000       0.87100000       0.38000000
    63  C          0.42700000       0.20300000       0.55300000
    64  C          0.57300000       0.79700000       0.44700000
    65  C          0.31000000       0.24900000       0.51300000
    66  C          0.69000000       0.75100000       0.48700000
    67  C          0.01500000       0.26600000       0.49100000
    68  C         -0.01500000       0.73400000       0.50900000
    69  C          0.03300000       0.34100000       0.43000000
    70  C          0.96700000       0.65900000       0.57000000
    71  C          0.89200000       0.38200000       0.38900000
    72  C          0.10800000       0.61800000       0.61100000
    73  C          0.03400000      -0.00700000       0.77300000
    74  C          0.96600000       0.00700000       0.22700000
    75  C          0.65500000       0.09700000       0.64200000
    76  C          0.34500000       0.90300000       0.35800000
    77  O          0.92000000       0.45000000       0.31700000
    78  O          0.08000000       0.55000000       0.68300000
    79  O          0.75400000       0.34400000       0.42300000
    80  O          0.24600000       0.65600000       0.57700000
    81  O          0.19200000       0.02100000       0.73100000
    82  O          0.80800000       0.97900000       0.26900000
    83  O          0.48200000       0.07400000       0.68800000
    84  O          0.51800000       0.92600000       0.31200000
    85  H          0.97500000       0.13400000       0.64200000
    86  H          0.02500000       0.86600000       0.35800000
    87  H          0.55400000       0.23000000       0.53600000
    88  H          0.44600000       0.77000000       0.46400000
    89  H          0.33600000       0.30800000       0.44700000
    90  H          0.66400000       0.69200000       0.55300000
    91  H          0.89000000       0.23300000       0.51000000
    92  H          0.11000000       0.76700000       0.49000000
    93  H          0.15100000       0.37100000       0.39800000
    94  H          0.84900000       0.62900000       0.60200000
    95  H          0.02300000       0.93600000       0.83300000
    96  H          0.97700000       0.06400000       0.16700000
    97  H          0.00500000       0.05200000       0.85700000
    98  H         -0.00500000       0.94800000       0.14300000
    99  H          0.94300000       0.97800000       0.66800000
   100  H          0.05700000       0.02200000       0.33200000
   101  H          0.73400000       0.06200000       0.69200000
   102  H          0.26600000       0.93800000       0.30800000
   103  H          0.70300000       0.17100000       0.66500000
   104  H          0.29700000       0.82900000       0.33500000
   105  H          0.64700000       0.07600000       0.50400000
   106  H          0.35300000       0.92400000       0.49600000
   107  H          0.81700000       0.48200000       0.28500000
   108  H          0.18300000       0.51800000       0.71500000
