data_CEMJOT03
_symmetry_space_group_name_H-M    'P1'
_symmetry_Int_Tables_number       1
loop_
_symmetry_equiv_pos_site_id
_symmetry_equiv_pos_as_xyz
1 x,y,z
_cell_length_a                   11.2166
_cell_length_b                   8.2146
_cell_length_c                   14.07312
_cell_angle_alpha                90.0
_cell_angle_beta                 128.863
_cell_angle_gamma                90.0
loop_
_atom_site_label
_atom_site_type_symbol
_atom_site_fract_x
_atom_site_fract_y
_atom_site_fract_z
     1  O          0.48499100       0.14409100       0.41129800
     2  O          0.51500900       0.64409100       0.08870200
     3  O          0.51500900       0.85590900       0.58870200
     4  O          0.48499100       0.35590900       0.91129800
     5  O          0.38102900       0.14106100       0.50437800
     6  O          0.61897100       0.64106100      -0.00437800
     7  O          0.61897100       0.85893900       0.49562200
     8  O          0.38102900       0.35893900       0.00437800
     9  H          0.42260000       0.05180000       0.52770000
    10  H          0.57740000       0.55180000       0.97230000
    11  H          0.57740000       0.94820000       0.47230000
    12  H          0.42260000       0.44820000       0.02770000
    13  O          0.07811900       0.95786900       0.26884700
    14  O          0.92188100       0.45786900       0.23115300
    15  O          0.92188100       0.04213100       0.73115300
    16  O          0.07811900       0.54213100       0.76884700
    17  O          0.13725900       0.08876900       0.13664700
    18  O          0.86274100       0.58876900       0.36335300
    19  O          0.86274100       0.91123100       0.86335300
    20  O          0.13725900       0.41123100       0.63664700
    21  C          0.30088110       0.62207130       0.27301900
    22  C          0.69911890       0.12207130       0.22698100
    23  C          0.69911890       0.37792870       0.72698100
    24  C          0.30088110       0.87792870       0.77301900
    25  C          0.16217110       0.86437130       0.25079900
    26  C          0.83782890       0.36437130       0.24920100
    27  C          0.83782890       0.13562870       0.74920100
    28  C          0.16217110       0.63562870       0.75079900
    29  C          0.33733120       0.37013130       0.38856100
    30  C          0.66266880       0.87013130       0.11143900
    31  C          0.66266880       0.62986870       0.61143900
    32  C          0.33733120       0.12986870       0.88856100
    33  H          0.27670000       0.41140000       0.40700000
    34  H          0.72330000       0.91140000       0.09300000
    35  H          0.72330000       0.58860000       0.59300000
    36  H          0.27670000       0.08860000       0.90700000
    37  C          0.19419120       0.93650130       0.17742900
    38  C          0.80580880       0.43650130       0.32257100
    39  C          0.80580880       0.06349870       0.82257100
    40  C          0.19419120       0.56349870       0.67742900
    41  C          0.21514110       0.70988120       0.29734900
    42  C          0.78485890       0.20988120       0.20265100
    43  C          0.78485890       0.29011880       0.70265100
    44  C          0.21514110       0.79011880       0.79734900
    45  H          0.19380000       0.66330000       0.34540000
    46  H          0.80620000       0.16330000       0.15460000
    47  H          0.80620000       0.33670000       0.65460000
    48  H          0.19380000       0.83670000       0.84540000
    49  C          0.40730110       0.20896130       0.43456900
    50  C          0.59269890       0.70896130       0.06543100
    51  C          0.59269890       0.79103870       0.56543100
    52  C          0.40730110       0.29103870       0.93456900
    53  C          0.33104120       0.69432140       0.20086100
    54  C          0.66895880       0.19432140       0.29913900
    55  C          0.66895880       0.30567860       0.79913900
    56  C          0.33104120       0.80567860       0.70086100
    57  H          0.38760000       0.63760000       0.18400000
    58  H          0.61240000       0.13760000       0.31600000
    59  H          0.61240000       0.36240000       0.81600000
    60  H          0.38760000       0.86240000       0.68400000
    61  C          0.27816130       0.85005140       0.15325100
    62  C          0.72183870       0.35005140       0.34674900
    63  C          0.72183870       0.14994860       0.84674900
    64  C          0.27816130       0.64994860       0.65325100
    65  H          0.29940000       0.89610000       0.10500000
    66  H          0.70060000       0.39610000       0.39500000
    67  H          0.70060000       0.10390000       0.89500000
    68  H          0.29940000       0.60390000       0.60500000
    69  C          0.35848110       0.45885130       0.32107900
    70  C          0.64151890       0.95885130       0.17892100
    71  C          0.64151890       0.54114870       0.67892100
    72  C          0.35848110       0.04114870       0.82107900
    73  H          0.41680000       0.41120000       0.30240000
    74  H          0.58320000       0.91120000       0.19760000
    75  H          0.58320000       0.58880000       0.69760000
    76  H          0.41680000       0.08880000       0.80240000
    77  C          0.17804150       0.17191150       0.07170110
    78  C          0.82195850       0.67191150       0.42829890
    79  C          0.82195850       0.82808850       0.92829890
    80  C          0.17804150       0.32808850       0.57170110
    81  H          0.13560000       0.27970000       0.05140000
    82  H          0.86440000       0.77970000       0.44860000
    83  H          0.86440000       0.72030000       0.94860000
    84  H          0.13560000       0.22030000       0.55140000
    85  H          0.13850000       0.11340000      -0.00180000
    86  H          0.86150000       0.61340000       0.50180000
    87  H          0.86150000       0.88660000       0.00180000
    88  H          0.13850000       0.38660000       0.49820000
    89  H          0.28750000       0.17850000       0.12180000
    90  H          0.71250000       0.67850000       0.37820000
    91  H          0.71250000       0.82150000       0.87820000
    92  H          0.28750000       0.32150000       0.62180000
    93  C          0.06457130       0.89859140       0.35734100
    94  C          0.93542870       0.39859140       0.14265900
    95  C          0.93542870       0.10140860       0.64265900
    96  C          0.06457130       0.60140860       0.85734100
    97  H          0.01110000       0.97720000       0.36860000
    98  H         -0.01110000       0.47720000       0.13140000
    99  H         -0.01110000       0.02280000       0.63140000
   100  H          0.01110000       0.52280000       0.86860000
   101  H          0.16480000       0.88080000       0.43350000
   102  H          0.83520000       0.38080000       0.06650000
   103  H          0.83520000       0.11920000       0.56650000
   104  H          0.16480000       0.61920000       0.93350000
   105  H          0.00870000       0.79790000       0.32930000
   106  H         -0.00870000       0.29790000       0.17070000
   107  H         -0.00870000       0.20210000       0.67070000
   108  H          0.00870000       0.70210000       0.82930000
