data_CEMJOT01
_symmetry_space_group_name_H-M    'P1'
_symmetry_Int_Tables_number       1
loop_
_symmetry_equiv_pos_site_id
_symmetry_equiv_pos_as_xyz
1 x,y,z
_cell_length_a                   8.4122
_cell_length_b                   14.9592
_cell_length_c                   8.3412
_cell_angle_alpha                100.282
_cell_angle_beta                 94.802
_cell_angle_gamma                101.832
loop_
_atom_site_label
_atom_site_type_symbol
_atom_site_fract_x
_atom_site_fract_y
_atom_site_fract_z
     1  O          0.17802000       0.52921000       0.24312000
     2  O          0.82198000       0.47079000       0.75688000
     3  O          0.01202000       0.41891000       0.33692000
     4  O         -0.01202000       0.58109000       0.66308000
     5  O          0.74558000       0.84441000       0.90018000
     6  O          0.25442000       0.15559000       0.09982000
     7  O          0.44628000       0.79031000       0.94588000
     8  O          0.55372000       0.20969000       0.05412000
     9  C          0.78267000       0.64382000       0.09273000
    10  C          0.21733000       0.35618000       0.90727000
    11  C          0.82777000       0.72012000       0.01743000
    12  C          0.17223000       0.27988000       0.98257000
    13  C          0.71267000       0.76792000       0.96987000
    14  C          0.28733000       0.23208000       0.03013000
    15  C          0.54907000       0.73772000      -0.00443000
    16  C          0.45093000       0.26228000       0.00443000
    17  C          0.50377000       0.66252000       0.06863000
    18  C          0.49623000       0.33748000       0.93137000
    19  C          0.61937000       0.61542000       0.11723000
    20  C          0.38063000       0.38458000       0.88277000
    21  C          0.91057000       0.59832000       0.14533000
    22  C          0.08943000       0.40168000       0.85467000
    23  C          0.89597000       0.52812000       0.22543000
    24  C          0.10403000       0.47188000       0.77457000
    25  C          0.03533000       0.48922000       0.27133000
    26  C          0.96467000       0.51078000       0.72867000
    27  C          0.90997000       0.87552000       0.86907000
    28  C          0.09003000       0.12448000       0.13093000
    29  C          0.27507000       0.75612000       0.94776000
    30  C          0.72493000       0.24388000       0.05224000
    31  H          0.26764900       0.50132700       0.27754600
    32  H          0.73235100       0.49867300       0.72245400
    33  H          0.93897300       0.74021500      -0.00082500
    34  H          0.06102700       0.25978500       0.00082500
    35  H          0.39057200       0.63601700       0.08892800
    36  H          0.60942800       0.36398300       0.91107200
    37  H          0.58916700       0.56161800       0.16203200
    38  H          0.41083300       0.43838200       0.83796800
    39  H          0.01983200       0.62501800       0.11413100
    40  H         -0.01983200       0.37498200       0.88586900
    41  H          0.79437300       0.49891600       0.25612600
    42  H          0.20562700       0.50108400       0.74387400
    43  H          0.90827200       0.93051600       0.82457200
    44  H          0.09172800       0.06948400       0.17542800
    45  H          0.94777000       0.82431800       0.79647000
    46  H          0.05223000       0.17568200       0.20353000
    47  H         -0.01073000       0.89351700       0.96947000
    48  H          0.01073000       0.10648300       0.03053000
    49  H          0.22087100       0.79941700       0.90197100
    50  H          0.77912900       0.20058300       0.09802900
    51  H          0.24866800       0.75441900       0.05783500
    52  H          0.75133200       0.24558100       0.94216500
    53  H          0.23627200       0.69171800       0.88407100
    54  H          0.76372800       0.30828200       0.11592900
    55  O          0.25562000       0.34601000       0.42632000
    56  O          0.74438000       0.65399000       0.57368000
    57  O          0.41992000       0.45191000       0.32052000
    58  O          0.58008000       0.54809000       0.67948000
    59  O          0.69652000       0.02181000       0.73912000
    60  O          0.30348000       0.97819000       0.26088000
    61  O         -0.00758000       0.07511000       0.68072000
    62  O          0.00758000       0.92489000       0.31928000
    63  C          0.64813000       0.22052000       0.54313000
    64  C          0.35187000       0.77948000       0.45687000
    65  C          0.60753000       0.14412000       0.61973000
    66  C          0.39247000       0.85588000       0.38027000
    67  C          0.72433000       0.09642000       0.66403000
    68  C          0.27567000       0.90358000       0.33597000
    69  C          0.88623000       0.12542000       0.63183000
    70  C          0.11377000       0.87458000       0.36817000
    71  C          0.92713000       0.20102000       0.55553000
    72  C          0.07287000       0.79898000       0.44447000
    73  C          0.80833000       0.24802000       0.51173000
    74  C          0.19167000       0.75198000       0.48827000
    75  C          0.51913000       0.26732000       0.49743000
    76  C          0.48087000       0.73268000       0.50257000
    77  C          0.53533000       0.34212000       0.43093000
    78  C          0.46467000       0.65788000       0.56907000
    79  C          0.39653000       0.38312000       0.39003000
    80  C          0.60347000       0.61688000       0.60997000
    81  C          0.53523000      -0.00772000       0.78133000
    82  C          0.46477000       0.00772000       0.21867000
    83  C          0.15543000       0.09792000       0.63933000
    84  C          0.84457000       0.90208000       0.36067000
    85  H          0.16294000       0.37802300       0.39193900
    86  H          0.83706000       0.62197700       0.60806100
    87  H          0.49583000       0.12251600       0.64732900
    88  H          0.50417000       0.87748400       0.35267100
    89  H          0.04123100       0.22381700       0.53922900
    90  H          0.95876900       0.77618300       0.46077100
    91  H          0.84182400       0.29651400       0.46132400
    92  H          0.15817600       0.70348600       0.53867600
    93  H          0.41553000       0.23791700       0.51842900
    94  H          0.58447000       0.76208300       0.48157100
    95  H          0.64192800       0.37281600       0.40832700
    96  H          0.35807200       0.62718400       0.59167300
    97  H          0.45062700       0.97228500       0.68052700
    98  H          0.54937300       0.02771500       0.31947300
    99  H          0.54472800       0.94018400       0.83402800
   100  H          0.45527200       0.05981600       0.16597200
   101  H          0.50672600       0.04231600       0.85612600
   102  H          0.49327400       0.95768400       0.14387400
   103  H          0.20933000       0.05391800       0.68403000
   104  H          0.79067000       0.94608200       0.31597000
   105  H          0.21233000       0.16201900       0.69033100
   106  H          0.78767000       0.83798100       0.30966900
   107  H          0.15292900       0.08561700       0.52013100
   108  H          0.84707100       0.91438300       0.47986900
