data_CIDREP
_symmetry_space_group_name_H-M    'P1'
_symmetry_Int_Tables_number       1
loop_
_symmetry_equiv_pos_site_id
_symmetry_equiv_pos_as_xyz
1 x,y,z
_cell_length_a                   10.69436
_cell_length_b                   11.11607
_cell_length_c                   11.30417
_cell_angle_alpha                84.6052
_cell_angle_beta                 69.6882
_cell_angle_gamma                65.3982
loop_
_atom_site_label
_atom_site_type_symbol
_atom_site_fract_x
_atom_site_fract_y
_atom_site_fract_z
     1  C          0.80702000       0.29792000       0.73482000
     2  C          0.19298000       0.70208000       0.26518000
     3  H          0.89890000       0.27650000       0.75120000
     4  H          0.10110000       0.72350000       0.24880000
     5  H          0.74410000       0.26620000       0.80500000
     6  H          0.25590000       0.73380000       0.19500000
     7  C          0.97442000       0.18822000       0.52622000
     8  C          0.02558000       0.81178000       0.47378000
     9  C          0.98842000       0.13462000       0.40332000
    10  C          0.01158000       0.86538000       0.59668000
    11  C          0.11382000       0.11692000       0.29932000
    12  C          0.88618000       0.88308000       0.70068000
    13  H          0.18900000       0.13570000       0.30850000
    14  H          0.81100000       0.86430000       0.69150000
    15  C          0.12902000       0.07202000       0.18272000
    16  C          0.87098000       0.92798000       0.81728000
    17  H          0.21550000       0.05870000       0.11270000
    18  H          0.78450000       0.94130000       0.88730000
    19  C          0.01882000       0.04642000       0.16752000
    20  C          0.98118000       0.95358000       0.83248000
    21  H          0.03000000       0.01530000       0.08740000
    22  H          0.97000000       0.98470000       0.91260000
    23  C          0.89232000       0.06632000       0.26942000
    24  C          0.10768000       0.93368000       0.73058000
    25  C          0.87982000       0.10772000       0.38712000
    26  C          0.12018000       0.89228000       0.61288000
    27  H          0.79500000       0.11760000       0.45770000
    28  H          0.20500000       0.88240000       0.54230000
    29  C          0.76742000       0.05612000       0.24462000
    30  C          0.23258000       0.94388000       0.75538000
    31  C          0.50072000       0.86292000       0.68242000
    32  C          0.49928000       0.13708000       0.31758000
    33  H          0.47950000       0.91560000       0.75840000
    34  H          0.52050000       0.08440000       0.24160000
    35  H          0.56380000       0.89110000       0.60900000
    36  H          0.43620000       0.10890000       0.39100000
    37  C          0.58172000       0.71712000       0.69916190
    38  C          0.41828000       0.28288000       0.30083810
    39  C          0.50892000       0.64792000       0.78292000
    40  C          0.49108000       0.35208000       0.21708000
    41  H          0.40790000       0.69280000       0.83010000
    42  H          0.59210000       0.30720000       0.16990000
    43  C          0.58192000       0.51442000       0.79812000
    44  C          0.41808000       0.48558000       0.20188000
    45  H          0.53050000       0.46900000       0.85590000
    46  H          0.46950000       0.53100000       0.14410000
    47  C          0.72972000       0.44632000       0.72939190
    48  C          0.27028000       0.55368000       0.27060810
    49  C          0.80302000       0.51592000       0.64652000
    50  C          0.19698000       0.48408000       0.35348000
    51  H          0.90430000       0.47130000       0.60000000
    52  H          0.09570000       0.52870000       0.40000000
    53  C          0.72982000       0.64952000       0.63102000
    54  C          0.27018000       0.35048000       0.36898000
    55  H          0.78110000       0.69500000       0.57340000
    56  H          0.21890000       0.30500000       0.42660000
    57  N          0.84004190       0.23085170       0.61564170
    58  N          0.15995810       0.76914830       0.38435830
    59  H          0.77050000       0.21790000       0.60170000
    60  H          0.22950000       0.78210000       0.39830000
    61  N          0.63559190       0.11054180       0.33725170
    62  N          0.36440810       0.88945820       0.66274830
    63  H          0.63230000       0.13060000       0.41210000
    64  H          0.36770000       0.86940000       0.58790000
    65  O          0.07950170       0.19404160       0.54278150
    66  O          0.92049830       0.80595840       0.45721850
    67  O          0.78403190       0.00652000       0.14494160
    68  O          0.21596810      -0.00652000       0.85505840
    69  C          0.42472000       0.50102000       0.53472000
    70  C          0.57528000       0.49898000       0.46528000
    71  H          0.36950000       0.57300000       0.60220000
    72  H          0.63050000       0.42700000       0.39780000
    73  H          0.37050000       0.51960000       0.47500000
    74  H          0.62950000       0.48040000       0.52500000
    75  C          0.43472000       0.37022000       0.59263180
    76  C          0.56528000       0.62978000       0.40736820
    77  C          0.32113000       0.23472000       0.72582000
    78  C          0.67887000       0.76528000       0.27418000
    79  H          0.38860000       0.16040000       0.66170000
    80  H          0.61140000       0.83960000       0.33830000
    81  H          0.22370000       0.23200000       0.75590000
    82  H          0.77630000       0.76800000       0.24410000
    83  C          0.37543000       0.21702000       0.83452000
    84  C          0.62457000       0.78298000       0.16548000
    85  C          0.50743000       0.15633000       0.84512000
    86  C          0.49257000       0.84367000       0.15488000
    87  H          0.59560000       0.10750000       0.77910000
    88  H          0.40440000       0.89250000       0.22090000
    89  C          0.49383000       0.17732000       0.97312000
    90  C          0.50617000       0.82268000       0.02688000
    91  H          0.56860000       0.14200000       0.00980000
    92  H          0.43140000       0.85800000      -0.00980000
    93  C          0.35423000       0.25663000       0.02922000
    94  C          0.64577000       0.74337000       0.97078000
    95  H          0.31280000       0.29090000       0.11440000
    96  H          0.68720000       0.70910000       0.88560000
    97  C          0.16302000       0.46812000       0.69432000
    98  C          0.83698000       0.53188000       0.30568000
    99  H          0.09760000       0.43140000       0.68310000
   100  H          0.90240000       0.56860000       0.31690000
   101  H          0.16790000       0.53600000       0.63170000
   102  H          0.83210000       0.46400000       0.36830000
   103  C          0.09583000       0.53512000       0.82582000
   104  C          0.90417000       0.46488000       0.17418000
   105  H          0.99580000       0.60250000       0.83650000
   106  H          0.00420000       0.39750000       0.16350000
   107  H          0.08700000       0.46800000       0.88860000
   108  H          0.91300000       0.53200000       0.11140000
   109  C          0.18093000       0.60073000       0.85352000
   110  C          0.81907000       0.39927000       0.14648000
   111  H          0.18430000       0.67170000       0.79420000
   112  H          0.81570000       0.32830000       0.20580000
   113  H          0.28260000       0.53460000       0.83780000
   114  H          0.71740000       0.46540000       0.16220000
   115  C          0.11773000       0.66013000      -0.01238000
   116  C          0.88227000       0.33987000       0.01238000
   117  H          0.17820000       0.70110000      -0.00080000
   118  H          0.82180000       0.29890000       0.00080000
   119  H          0.01780000       0.72740000       0.00340000
   120  H          0.98220000       0.27260000      -0.00340000
   121  H          0.11620000       0.59010000       0.04700000
   122  H          0.88380000       0.40990000       0.95300000
   123  N          0.31022180       0.36090170       0.66702160
   124  N          0.68977820       0.63909830       0.33297840
   125  O          0.55459150       0.27344140       0.57106140
   126  O          0.44540850       0.72655860       0.42893860
   127  O          0.27761190       0.28235190       0.94741170
   128  O          0.72238810       0.71764810       0.05258830
