data_CIDREP01
_symmetry_space_group_name_H-M    'P1'
_symmetry_Int_Tables_number       1
loop_
_symmetry_equiv_pos_site_id
_symmetry_equiv_pos_as_xyz
1 x,y,z
_cell_length_a                   13.06425
_cell_length_b                   16.02136
_cell_length_c                   12.39985
_cell_angle_alpha                90.0
_cell_angle_beta                 107.7752
_cell_angle_gamma                90.0
loop_
_atom_site_label
_atom_site_type_symbol
_atom_site_fract_x
_atom_site_fract_y
_atom_site_fract_z
     1  O          0.49889160       0.61425120       0.63188160
     2  O          0.50110840       0.11425120       0.86811840
     3  O          0.50110840       0.38574880       0.36811840
     4  O          0.49889160       0.88574880       0.13188160
     5  N          0.34309180       0.64104140       0.49732000
     6  N          0.65690820       0.14104140       0.00268000
     7  N          0.65690820       0.35895860       0.50268000
     8  N          0.34309180       0.85895860      -0.00268000
     9  C          0.42992000       0.59367150       0.54272000
    10  C          0.57008000       0.09367150       0.95728000
    11  C          0.57008000       0.40632850       0.45728000
    12  C          0.42992000       0.90632850       0.04272000
    13  C          0.44352000       0.51571160       0.48152000
    14  C          0.55648000       0.01571160       0.01848000
    15  C          0.55648000       0.48428840       0.51848000
    16  C          0.44352000       0.98428840       0.98152000
    17  H          0.39650000       0.47270000       0.49480000
    18  H          0.60350000       0.97270000       0.00520000
    19  H          0.60350000       0.52730000       0.50520000
    20  H          0.39650000       0.02730000      -0.00520000
    21  H          0.42200000       0.52690000       0.40080000
    22  H          0.57800000       0.02690000       0.09920000
    23  H          0.57800000       0.47310000       0.59920000
    24  H          0.42200000       0.97310000       0.90080000
    25  O          0.15833000       0.73652000       0.60343000
    26  O          0.84167000       0.23652000       0.89657000
    27  O          0.84167000       0.26348000       0.39657000
    28  O          0.15833000       0.76348000       0.10343000
    29  C          0.28563000       0.66152000       0.71863000
    30  C          0.71437000       0.16152000       0.78137000
    31  C          0.71437000       0.33848000       0.28137000
    32  C          0.28563000       0.83848000       0.21863000
    33  H          0.35070000       0.63410000       0.74980000
    34  H          0.64930000       0.13410000       0.75020000
    35  H          0.64930000       0.36590000       0.25020000
    36  H          0.35070000       0.86590000       0.24980000
    37  C          0.33123000       0.71774190       0.55753000
    38  C          0.66877000       0.21774190       0.94247000
    39  C          0.66877000       0.28225810       0.44247000
    40  C          0.33123000       0.78225810       0.05753000
    41  H          0.30270000       0.76150000       0.50250000
    42  H          0.69730000       0.26150000      -0.00250000
    43  H          0.69730000       0.23850000       0.49750000
    44  H          0.30270000       0.73850000       0.00250000
    45  H          0.40150000       0.73540000       0.60510000
    46  H          0.59850000       0.23540000       0.89490000
    47  H          0.59850000       0.26460000       0.39490000
    48  H          0.40150000       0.76460000       0.10510000
    49  C          0.25952000       0.70742000       0.62883000
    50  C          0.74048000       0.20742000       0.87117000
    51  C          0.74048000       0.29258000       0.37117000
    52  C          0.25952000       0.79258000       0.12883000
    53  C          0.25523000       0.61862000       0.39723000
    54  C          0.74477000       0.11862000       0.10277000
    55  C          0.74477000       0.38138000       0.60277000
    56  C          0.25523000       0.88138000       0.89723000
    57  H          0.28490000       0.59320000       0.34230000
    58  H          0.71510000       0.09320000       0.15770000
    59  H          0.71510000       0.40680000       0.65770000
    60  H          0.28490000       0.90680000       0.84230000
    61  H          0.21790000       0.66900000       0.36360000
    62  H          0.78210000       0.16900000       0.13640000
    63  H          0.78210000       0.33100000       0.63640000
    64  H          0.21790000       0.83100000       0.86360000
    65  C          0.12075000       0.70684000       0.69256000
    66  C          0.87925000       0.20684000       0.80744000
    67  C          0.87925000       0.29316000       0.30744000
    68  C          0.12075000       0.79316000       0.19256000
    69  H          0.05410000       0.71730000       0.70250000
    70  H          0.94590000       0.21730000       0.79750000
    71  H          0.94590000       0.28270000       0.29750000
    72  H          0.05410000       0.78270000       0.20250000
    73  C          0.17483000       0.55894000       0.42094000
    74  C          0.82517000       0.05894000       0.07906000
    75  C          0.82517000       0.44106000       0.57906000
    76  C          0.17483000       0.94106000       0.92094000
    77  H          0.20770000       0.50450000       0.44040000
    78  H          0.79230000       0.00450000       0.05960000
    79  H          0.79230000       0.49550000       0.55960000
    80  H          0.20770000      -0.00450000       0.94040000
    81  H          0.15370000       0.57910000       0.48470000
    82  H          0.84630000       0.07910000       0.01530000
    83  H          0.84630000       0.42090000       0.51530000
    84  H          0.15370000       0.92090000       0.98470000
    85  C          0.20017000       0.66093000       0.75865000
    86  C          0.79983000       0.16093000       0.74135000
    87  C          0.79983000       0.33907000       0.24135000
    88  C          0.20017000       0.83907000       0.25865000
    89  H          0.19730000       0.63250000       0.82310000
    90  H          0.80270000       0.13250000       0.67690000
    91  H          0.80270000       0.36750000       0.17690000
    92  H          0.19730000       0.86750000       0.32310000
    93  C          0.07934000       0.55165000       0.32095000
    94  C          0.92066000       0.05165000       0.17905000
    95  C          0.92066000       0.44835000       0.67905000
    96  C          0.07934000       0.94835000       0.82095000
    97  H          0.06690000       0.60580000       0.28420000
    98  H          0.93310000       0.10580000       0.21580000
    99  H          0.93310000       0.39420000       0.71580000
   100  H          0.06690000       0.89420000       0.78420000
   101  H          0.09700000       0.51340000       0.26850000
   102  H          0.90300000       0.01340000       0.23150000
   103  H          0.90300000       0.48660000       0.73150000
   104  H          0.09700000       0.98660000       0.76850000
   105  C         -0.01255000       0.52669000       0.33416000
   106  C          0.01255000       0.02669000       0.16584000
   107  C          0.01255000       0.47331000       0.66584000
   108  C         -0.01255000       0.97331000       0.83416000
   109  H          0.93310000       0.52490000       0.26170000
   110  H          0.06690000       0.02490000       0.23830000
   111  H          0.06690000       0.47510000       0.73830000
   112  H          0.93310000       0.97510000       0.76170000
   113  H         -0.00350000       0.47180000       0.36720000
   114  H          0.00350000       0.97180000       0.13280000
   115  H          0.00350000       0.52820000       0.63280000
   116  H         -0.00350000       0.02820000       0.86720000
   117  H          0.96620000       0.56470000       0.38300000
   118  H          0.03380000       0.06470000       0.11700000
   119  H          0.03380000       0.43530000       0.61700000
   120  H          0.96620000       0.93530000       0.88300000
   121  O          0.67452000       0.43178150      -0.00976810
   122  O          0.32548000       0.93178150       0.50976810
   123  O          0.32548000       0.56821850       0.00976810
   124  O          0.67452000       0.06821850       0.49023190
   125  N          0.70592000       0.71541150       0.63866190
   126  N          0.29408000       0.21541150       0.86133810
   127  N          0.29408000       0.28458850       0.36133810
   128  N          0.70592000       0.78458850       0.13866190
   129  H          0.65290000       0.69000000       0.65160000
   130  H          0.34710000       0.19000000       0.84840000
   131  H          0.34710000       0.31000000       0.34840000
   132  H          0.65290000       0.81000000       0.15160000
   133  N          0.55732000       0.50405160       0.85192000
   134  N          0.44268000       0.00405160       0.64808000
   135  N          0.44268000       0.49594840       0.14808000
   136  N          0.55732000      -0.00405160       0.35192000
   137  H          0.54840000       0.54470000       0.80470000
   138  H          0.45160000       0.04470000       0.69530000
   139  H          0.45160000       0.45530000       0.19530000
   140  H          0.54840000       0.95530000       0.30470000
   141  O          0.88042000       0.74552000       0.70373000
   142  O          0.11958000       0.24552000       0.79627000
   143  O          0.11958000       0.25448000       0.29627000
   144  O          0.88042000       0.75448000       0.20373000
   145  C          0.81382000       0.65019180       0.81092000
   146  C          0.18618000       0.15019180       0.68908000
   147  C          0.18618000       0.34980820       0.18908000
   148  C          0.81382000       0.84980820       0.31092000
   149  C          0.73272000       0.59719170       0.81752000
   150  C          0.26728000       0.09719170       0.68248000
   151  C          0.26728000       0.40280830       0.18248000
   152  C          0.73272000       0.90280830       0.31752000
   153  H          0.66800000       0.59720000       0.75910000
   154  H          0.33200000       0.09720000       0.74090000
   155  H          0.33200000       0.40280000       0.24090000
   156  H          0.66800000       0.90280000       0.25910000
   157  C          0.42503000       0.39731180       0.75352000
   158  C          0.57497000       0.89731180       0.74648000
   159  C          0.57497000       0.60268820       0.24648000
   160  C          0.42503000       0.10268820       0.25352000
   161  C          0.35313000       0.28940170       0.56792000
   162  C          0.64687000       0.78940170       0.93208000
   163  C          0.64687000       0.71059830       0.43208000
   164  C          0.35313000       0.21059830       0.06792000
   165  C          0.45893000       0.29140190       0.63113000
   166  C          0.54107000       0.79140190       0.86887000
   167  C          0.54107000       0.70859810       0.36887000
   168  C          0.45893000       0.20859810       0.13113000
   169  H          0.50760000       0.25640000       0.61240000
   170  H          0.49240000       0.75640000       0.88760000
   171  H          0.49240000       0.74360000       0.38760000
   172  H          0.50760000       0.24360000       0.11240000
   173  C          0.49453000       0.34482000       0.72292000
   174  C          0.50547000       0.84482000       0.77708000
   175  C          0.50547000       0.65518000       0.27708000
   176  C          0.49453000       0.15518000       0.22292000
   177  H          0.56700000       0.34510000       0.76450000
   178  H          0.43300000       0.84510000       0.73550000
   179  H          0.43300000       0.65490000       0.23550000
   180  H          0.56700000       0.15490000       0.26450000
   181  C          0.74472000       0.54400160       0.90882000
   182  C          0.25528000       0.04400160       0.59118000
   183  C          0.25528000       0.45599840       0.09118000
   184  C          0.74472000       0.95599840       0.40882000
   185  C          0.31843000       0.39502000       0.69013000
   186  C          0.68157000       0.89502000       0.80987000
   187  C          0.68157000       0.60498000       0.30987000
   188  C          0.31843000       0.10498000       0.19013000
   189  H          0.26970000       0.43000000       0.70890000
   190  H          0.73030000       0.93000000       0.79110000
   191  H          0.73030000       0.57000000       0.29110000
   192  H          0.26970000       0.07000000       0.20890000
   193  C          0.80332000       0.70739190       0.71383000
   194  C          0.19668000       0.20739190       0.78617000
   195  C          0.19668000       0.29260810       0.28617000
   196  C          0.80332000       0.79260810       0.21383000
   197  C          0.65703000       0.48837180       0.92012000
   198  C          0.34297000       0.98837180       0.57988000
   199  C          0.34297000       0.51162820       0.07988000
   200  C          0.65703000       0.01162820       0.42012000
   201  C          0.91063000       0.64962000       0.89783000
   202  C          0.08937000       0.14962000       0.60217000
   203  C          0.08937000       0.35038000       0.10217000
   204  C          0.91063000       0.85038000       0.39783000
   205  H          0.96600000       0.68510000       0.89500000
   206  H          0.03400000       0.18510000       0.60500000
   207  H          0.03400000       0.31490000       0.10500000
   208  H          0.96600000       0.81490000       0.39500000
   209  C          0.28253000       0.34162000       0.59873000
   210  C          0.71747000       0.84162000       0.90127000
   211  C          0.71747000       0.65838000       0.40127000
   212  C          0.28253000       0.15838000       0.09873000
   213  H          0.20990000       0.34080000       0.55740000
   214  H          0.79010000       0.84080000       0.94260000
   215  H          0.79010000       0.65920000       0.44260000
   216  H          0.20990000       0.15920000       0.05740000
   217  C          0.68513000       0.76502000       0.53603000
   218  C          0.31487000       0.26502000       0.96397000
   219  C          0.31487000       0.23498000       0.46397000
   220  C          0.68513000       0.73498000       0.03603000
   221  H          0.75040000       0.79380000       0.53580000
   222  H          0.24960000       0.29380000       0.96420000
   223  H          0.24960000       0.20620000       0.46420000
   224  H          0.75040000       0.70620000       0.03580000
   225  H          0.63090000       0.80670000       0.53460000
   226  H          0.36910000       0.30670000       0.96540000
   227  H          0.36910000       0.19330000       0.46540000
   228  H          0.63090000       0.69330000       0.03460000
   229  C          0.92433000       0.59643000       0.98783000
   230  C          0.07567000       0.09643000       0.51217000
   231  C          0.07567000       0.40357000       0.01217000
   232  C          0.92433000       0.90357000       0.48783000
   233  H         -0.01050000       0.59570000       0.04540000
   234  H          0.01050000       0.09570000       0.45460000
   235  H          0.01050000       0.40430000       0.95460000
   236  H         -0.01050000       0.90430000       0.54540000
   237  C          0.46343000       0.45592000       0.85363000
   238  C          0.53657000       0.95592000       0.64637000
   239  C          0.53657000       0.54408000       0.14637000
   240  C          0.46343000       0.04408000       0.35363000
   241  H          0.40560000       0.49400000       0.85350000
   242  H          0.59440000      -0.00600000       0.64650000
   243  H          0.59440000       0.50600000       0.14650000
   244  H          0.40560000       0.00600000       0.35350000
   245  H          0.48060000       0.42370000       0.92310000
   246  H          0.51940000       0.92370000       0.57690000
   247  H          0.51940000       0.57630000       0.07690000
   248  H          0.48060000       0.07630000       0.42310000
   249  C          0.84303000       0.54452000      -0.00607000
   250  C          0.15697000       0.04452000       0.50607000
   251  C          0.15697000       0.45548000       0.00607000
   252  C          0.84303000       0.95548000       0.49393000
   253  H          0.85370000       0.50900000       0.05570000
   254  H          0.14630000       0.00900000       0.44430000
   255  H          0.14630000       0.49100000       0.94430000
   256  H          0.85370000       0.99100000       0.55570000
