data_CIDREP03
_symmetry_space_group_name_H-M    'P1'
_symmetry_Int_Tables_number       1
loop_
_symmetry_equiv_pos_site_id
_symmetry_equiv_pos_as_xyz
1 x,y,z
_cell_length_a                   10.49587
_cell_length_b                   11.48488
_cell_length_c                   11.51619
_cell_angle_alpha                89.0122
_cell_angle_beta                 79.7602
_cell_angle_gamma                63.6192
loop_
_atom_site_label
_atom_site_type_symbol
_atom_site_fract_x
_atom_site_fract_y
_atom_site_fract_z
     1  O          0.40342000       0.73012000       0.45562000
     2  O          0.59658000       0.26988000       0.54438000
     3  N          0.63483000       0.66402000       0.36642000
     4  N          0.36517000       0.33598000       0.63358000
     5  O          0.50563000       0.78073000       0.16192000
     6  O          0.49437000       0.21927000       0.83808000
     7  C          0.52864000       0.64093000       0.42743000
     8  C          0.47136000       0.35907000       0.57257000
     9  C          0.56433000       0.50543000       0.46493000
    10  C          0.43567000       0.49457000       0.53507000
    11  H          0.60277000       0.44546000       0.39507600
    12  H          0.39723000       0.55454000       0.60492400
    13  H          0.63915800       0.47985600       0.51220400
    14  H          0.36084200       0.52014400       0.48779600
    15  C          0.78745000       0.48844000       0.19854000
    16  C          0.21255000       0.51156000       0.80146000
    17  H          0.72822500       0.44274700       0.21537200
    18  H          0.27177500       0.55725300       0.78462800
    19  H          0.74536300       0.55383100       0.14406200
    20  H          0.25463700       0.44616900       0.85593800
    21  C          0.67945000       0.83794000       0.11435000
    22  C          0.32055000       0.16206000       0.88565000
    23  H          0.75127900       0.86284700       0.11957000
    24  H          0.24872100       0.13715300       0.88043000
    25  C          0.52826000       0.79126000       0.04144000
    26  C          0.47174000       0.20874000       0.95856000
    27  H          0.47600500       0.77741600      -0.00962200
    28  H          0.52399500       0.22258400       0.00962200
    29  C          0.63387000       0.82345000       0.00925000
    30  C          0.36613000       0.17655000      -0.00925000
    31  H          0.67125200       0.83443300       0.93271600
    32  H          0.32874800       0.16556700       0.06728400
    33  C          0.91716000       0.34385000       0.02895000
    34  C          0.08284000       0.65615000       0.97105000
    35  H          0.01189000       0.28238000      -0.01060600
    36  H          0.98811000       0.71762000       0.01060600
    37  H          0.85630300       0.30077500       0.04619400
    38  H          0.14369700       0.69922500       0.95380600
    39  H          0.87599900       0.41320500       0.97882500
    40  H          0.12400100       0.58679500       0.02117500
    41  C          0.92806000       0.39865000       0.14245000
    42  C          0.07194000       0.60135000       0.85755000
    43  H          0.96987800       0.32905700       0.19342200
    44  H          0.03012200       0.67094300       0.80657800
    45  H          0.98964500       0.44189900       0.12580700
    46  H          0.01035500       0.55810100       0.87419300
    47  C          0.60314000       0.79653000       0.33183000
    48  C          0.39686000       0.20347000       0.66817000
    49  H          0.67548000       0.81935800       0.35190300
    50  H          0.32452000       0.18064200       0.64809700
    51  H          0.50953500       0.85736900       0.37644900
    52  H          0.49046500       0.14263100       0.62355100
    53  C          0.60174000       0.80973000       0.20364000
    54  C          0.39826000       0.19027000       0.79636000
    55  C          0.78044000       0.56174000       0.32134000
    56  C          0.21956000       0.43826000       0.67866000
    57  H          0.80985500       0.49837000       0.38016400
    58  H          0.19014500       0.50163000       0.61983600
    59  H          0.84760100       0.59941800       0.30743000
    60  H          0.15239900       0.40058200       0.69257000
    61  O          0.22963000       0.91303000       0.88703000
    62  O          0.77037000       0.08697000       0.11297000
    63  O          0.86517000       0.81983000       0.45573000
    64  O          0.13483000       0.18017000       0.54427000
    65  N          0.34573000       0.86243000       0.69873000
    66  N          0.65427000       0.13757000       0.30127000
    67  H          0.33796200       0.85440600       0.62653000
    68  H          0.66203800       0.14559400       0.37347000
    69  N          0.09733000       0.77513000       0.40083000
    70  N          0.90267000       0.22487000       0.59917000
    71  H          0.16947400       0.78207400       0.41963400
    72  H          0.83052600       0.21792600       0.58036600
    73  C          0.84246000       0.93484000       0.67764000
    74  C          0.15754000       0.06516000       0.32236000
    75  H          0.75720100       0.94387900       0.65661900
    76  H          0.24279900       0.05612100       0.34338100
    77  C          0.77904000       0.43143000       0.72093000
    78  C          0.22096000       0.56857000       0.27907000
    79  C          0.97277000       0.87473000       0.59653000
    80  C          0.02723000       0.12527000       0.40347000
    81  C          0.09373000       0.91033000       0.74283000
    82  C          0.90627000       0.08967000       0.25717000
    83  C          0.58843000       0.69583000       0.72123000
    84  C          0.41157000       0.30417000       0.27877000
    85  C          0.97346000       0.82163000       0.47914000
    86  C          0.02654000       0.17837000       0.52086000
    87  C          0.09693000       0.86353000       0.63173000
    88  C          0.90307000       0.13647000       0.36827000
    89  H          0.18499300       0.82334900       0.57926400
    90  H          0.81500700       0.17665100       0.42073600
    91  C          0.22824000       0.89563000       0.78163000
    92  C          0.77176000       0.10437000       0.21837000
    93  C          0.72814000       0.64593000       0.65803000
    94  C          0.27186000       0.35407000       0.34197000
    95  H          0.75932800       0.70064600       0.61477200
    96  H          0.24067200       0.29935400       0.38522800
    97  C          0.54524000       0.61233000       0.78343000
    98  C          0.45476000       0.38767000       0.21657000
    99  H          0.45103200       0.64384400       0.82613800
   100  H          0.54896800       0.35615600       0.17386200
   101  C          0.82264000       0.51503000       0.65823000
   102  C          0.17736000       0.48497000       0.34177000
   103  H          0.91669000       0.48304800       0.61534000
   104  H          0.08331000       0.51695200       0.38466000
   105  C          0.64034000       0.48173000       0.78323000
   106  C          0.35966000       0.51827000       0.21677000
   107  H          0.60901200       0.42694500       0.82638100
   108  H          0.39098800       0.57305500       0.17361900
   109  C          0.48643000       0.83873000       0.72143000
   110  C          0.51357000       0.16127000       0.27857000
   111  H          0.47358100       0.88128500       0.79754000
   112  H          0.52641900       0.11871500       0.20246000
   113  H          0.52989000       0.87758900       0.66152800
   114  H          0.47011000       0.12241100       0.33847200
   115  C          0.96326000       0.96743000       0.82113000
   116  C          0.03674000       0.03257000       0.17887000
   117  H          0.95965000      -0.00271200       0.89680700
   118  H          0.04035000       0.00271200       0.10319300
   119  C          0.11794000       0.71353000       0.28563000
   120  C          0.88206000       0.28647000       0.71437000
   121  H          0.15683300       0.75496900       0.22505300
   122  H          0.84316700       0.24503100       0.77494700
   123  H          0.02515800       0.72490500       0.27056100
   124  H          0.97484200       0.27509500       0.72943900
   125  C          0.83886000       0.98034000       0.78744000
   126  C          0.16114000       0.01966000       0.21256000
   127  H          0.75094500       0.02059700       0.84009700
   128  H          0.24905500       0.97940300       0.15990300
