data_CILHIO35
_symmetry_space_group_name_H-M    'P1'
_symmetry_Int_Tables_number       1
loop_
_symmetry_equiv_pos_site_id
_symmetry_equiv_pos_as_xyz
1 x,y,z
_cell_length_a                   16.43329
_cell_length_b                   8.5003
_cell_length_c                   12.8713
_cell_angle_alpha                90.0
_cell_angle_beta                 108.5059
_cell_angle_gamma                90.0
loop_
_atom_site_label
_atom_site_type_symbol
_atom_site_fract_x
_atom_site_fract_y
_atom_site_fract_z
     1  I          0.00000000       0.00000000       0.00000000
     2  I         -0.00000000       0.50000000       0.50000000
     3  I          0.00089300       0.27490700       0.13883500
     4  I         -0.00089300       0.77490700       0.36116500
     5  I         -0.00089300       0.72509300       0.86116500
     6  I          0.00089300       0.22509300       0.63883500
     7  S          0.37758900       0.01862000       0.34491000
     8  S          0.62241100       0.51862000       0.15509000
     9  S          0.62241100       0.98138000       0.65509000
    10  S          0.37758900       0.48138000       0.84491000
    11  S          0.45726900       0.26482000       0.50511000
    12  S          0.54273100       0.76482000      -0.00511000
    13  S          0.54273100       0.73518000       0.49489000
    14  S          0.45726900       0.23518000       0.00511000
    15  S          0.55251900       0.01602000       0.27031000
    16  S          0.44748100       0.51602000       0.22969000
    17  S          0.44748100      -0.01602000       0.72969000
    18  S          0.55251900       0.48398000       0.77031000
    19  S          0.62113900       0.26892000       0.42871000
    20  S          0.37886100       0.76892000       0.07129000
    21  S          0.37886100       0.73108000       0.57129000
    22  S          0.62113900       0.23108000       0.92871000
    23  S          0.20781000       0.04062000       0.37512000
    24  S          0.79219000       0.54062000       0.12488000
    25  S          0.79219000       0.95938000       0.62488000
    26  S          0.20781000       0.45938000       0.87512000
    27  S          0.30621000       0.32932000       0.57002000
    28  S          0.69379000       0.82932000       0.92998000
    29  S          0.69379000       0.67068000       0.42998000
    30  S          0.30621000       0.17068000       0.07002000
    31  S          0.70071000       0.00132000       0.19031000
    32  S          0.29929000       0.50132000       0.30969000
    33  S          0.29929000      -0.00132000       0.80969000
    34  S          0.70071000       0.49868000       0.69031000
    35  S          0.78176100       0.30922000       0.37801000
    36  S          0.21823900       0.80922000       0.12199000
    37  S          0.21823900       0.69078000       0.62199000
    38  S          0.78176100       0.19078000       0.87801000
    39  C          0.46533000       0.14026000       0.40254000
    40  C          0.53467000       0.64026000       0.09746000
    41  C          0.53467000       0.85974000       0.59746000
    42  C          0.46533000       0.35974000       0.90254000
    43  C          0.53773000       0.13946000       0.37074000
    44  C          0.46227000       0.63946000       0.12926000
    45  C          0.46227000       0.86054000       0.62926000
    46  C          0.53773000       0.36054000       0.87074000
    47  C          0.31293000       0.10877000       0.41335000
    48  C          0.68707000       0.60877000       0.08665000
    49  C          0.68707000       0.89123000       0.58665000
    50  C          0.31293000       0.39123000       0.91335000
    51  C          0.34993000       0.21706000       0.48704000
    52  C          0.65007000       0.71706000       0.01296000
    53  C          0.65007000       0.78294000       0.51296000
    54  C          0.34993000       0.28294000       0.98704000
    55  C          0.65383000       0.09206000       0.27894000
    56  C          0.34617000       0.59206000       0.22106000
    57  C          0.34617000       0.90794000       0.72106000
    58  C          0.65383000       0.40794000       0.77894000
    59  C          0.68433000       0.20846000       0.35054000
    60  C          0.31567000       0.70846000       0.14946000
    61  C          0.31567000       0.79154000       0.64946000
    62  C          0.68433000       0.29154000       0.85054000
    63  C          0.15995000       0.18131000       0.44277000
    64  C          0.84005000       0.68131000       0.05723000
    65  C          0.84005000       0.81869000       0.55723000
    66  C          0.15995000       0.31869000       0.94277000
    67  C          0.20884000       0.23191000       0.55236000
    68  C          0.79116000       0.73191000       0.94764000
    69  C          0.79116000       0.76809000       0.44764000
    70  C          0.20884000       0.26809000       0.05236000
    71  C          0.79124000       0.12498000       0.20225000
    72  C          0.20876000       0.62498000       0.29775000
    73  C          0.20876000       0.87502000       0.79775000
    74  C          0.79124000       0.37502000       0.70225000
    75  C          0.83954000       0.17818000       0.31755000
    76  C          0.16046000       0.67818000       0.18245000
    77  C          0.16046000       0.82182000       0.68245000
    78  C          0.83954000       0.32182000       0.81755000
    79  H          0.14730000       0.27390000       0.39850000
    80  H          0.85270000       0.77390000       0.10150000
    81  H          0.85270000       0.72610000       0.60150000
    82  H          0.14730000       0.22610000       0.89850000
    83  H          0.10640000       0.13700000       0.44440000
    84  H          0.89360000       0.63700000       0.05560000
    85  H          0.89360000       0.86300000       0.55560000
    86  H          0.10640000       0.36300000       0.94440000
    87  H          0.22180000       0.13520000       0.59770000
    88  H          0.77820000       0.63520000       0.90230000
    89  H          0.77820000       0.86480000       0.40230000
    90  H          0.22180000       0.36480000       0.09770000
    91  H          0.17320000       0.29440000       0.58120000
    92  H          0.82680000       0.79440000       0.91880000
    93  H          0.82680000       0.70560000       0.41880000
    94  H          0.17320000       0.20560000       0.08120000
    95  H          0.82930000       0.07100000       0.17100000
    96  H          0.17070000       0.57100000       0.32900000
    97  H          0.17070000       0.92900000       0.82900000
    98  H          0.82930000       0.42900000       0.67100000
    99  H          0.77140000       0.21840000       0.15920000
   100  H          0.22860000       0.71840000       0.34080000
   101  H          0.22860000       0.78160000       0.84080000
   102  H          0.77140000       0.28160000       0.65920000
   103  H          0.89310000       0.22460000       0.31800000
   104  H          0.10690000       0.72460000       0.18200000
   105  H          0.10690000       0.77540000       0.68200000
   106  H          0.89310000       0.27540000       0.81800000
   107  H          0.85490000       0.08240000       0.36230000
   108  H          0.14510000       0.58240000       0.13770000
   109  H          0.14510000       0.91760000       0.63770000
   110  H          0.85490000       0.41760000       0.86230000
