data_CILHIO38
_symmetry_space_group_name_H-M    'P1'
_symmetry_Int_Tables_number       1
loop_
_symmetry_equiv_pos_site_id
_symmetry_equiv_pos_as_xyz
1 x,y,z
_cell_length_a                   9.01624
_cell_length_b                   10.66956
_cell_length_c                   17.32427
_cell_angle_alpha                96.5363
_cell_angle_beta                 97.758012
_cell_angle_gamma                91.1983
loop_
_atom_site_label
_atom_site_type_symbol
_atom_site_fract_x
_atom_site_fract_y
_atom_site_fract_z
     1  I          0.80435812       0.92289800       0.01510080
     2  I          0.18326512       0.07630200       0.98983080
     3  I          0.49355519      -0.00072300       0.00186611
     4  I          0.68944813       0.41917200       0.00785480
     5  I          0.31061913       0.57238200      -0.00536220
     6  I          0.00002200       0.49570300       0.00093412
     7  S          0.59349700       0.92625890       0.22174400
     8  S          0.88578700       0.93418900       0.61617400
     9  S          0.70010700       0.14045110       0.56717400
    10  S          0.82946700       0.79859900       0.43355400
    11  S          0.64326700       0.00906110       0.39221400
    12  S          0.80468700       0.66681890       0.27450400
    13  S          0.94100700       0.03797110       0.78465400
    14  S          0.71854700       0.28560100       0.72114400
    15  C          0.82322000       0.14014000       0.83927150
    16  C          0.82132000       0.27304000       0.81703150
    17  C          0.85922000       0.05534000       0.68924140
    18  C          0.77322000       0.15174000       0.66588140
    19  C          0.77882000      -0.00154000       0.54062130
    20  C          0.75482000       0.94076000       0.46424140
    21  C          0.75952000       0.79906000       0.33445140
    22  C          0.67422000       0.89736000       0.31499140
    23  C          0.58832000       0.76836000       0.17023150
    24  C          0.73872000       0.70756000       0.17711140
    25  H          0.72170000       0.10430000       0.83010000
    26  H          0.85880000       0.14310000       0.89490000
    27  H          0.92370000       0.30370000       0.81810000
    28  H          0.77690000       0.32700000       0.85600000
    29  H          0.51740000       0.71590000       0.19080000
    30  H          0.55230000       0.77190000       0.11520000
    31  H          0.81210000       0.76490000       0.16240000
    32  H          0.73190000       0.63150000       0.14020000
    33  S          0.81283700       0.19331100       0.27851400
    34  S          0.18076700       0.80633100       0.72772400
    35  S          0.11533700       0.67020100       0.56957400
    36  S          0.96013700       0.56331110       0.78213400
    37  S          0.03670700       0.43202110       0.22159400
    38  S          0.07593700       0.53098100       0.39066400
    39  S          0.87132700       0.33820100       0.43441400
    40  S          0.91127700       0.47539100       0.61144400
    41  C          0.00512000       0.72024000       0.83316150
    42  C          0.16172000       0.76884000       0.82548140
    43  C         -0.00108000       0.58564000       0.68816140
    44  C          0.08912000       0.67564000       0.66870140
    45  C          0.00292000       0.53244000       0.53886140
    46  C         -0.01358000       0.47394000       0.46423130
    47  C          0.90332000       0.32584000       0.33614140
    48  C         -0.00528000       0.41344000       0.31565140
    49  C          0.82782000       0.23184000       0.18086150
    50  C         -0.01608000       0.27664000       0.17096150
    51  H          0.93260000       0.77800000       0.81240000
    52  H         -0.00330000       0.71910000       0.88830000
    53  H          0.23290000       0.70540000       0.83930000
    54  H          0.18670000       0.84390000       0.86250000
    55  H          0.79870000       0.15770000       0.14360000
    56  H          0.75830000       0.29710000       0.16860000
    57  H         -0.01050000       0.27760000       0.11550000
    58  H          0.05530000       0.21700000       0.19040000
    59  S          0.29722700       0.84922890       0.43456400
    60  S          0.10013700       0.05485100       0.38875400
    61  S          0.27178700       0.70715900       0.27918400
    62  S          0.40028700       0.06939110       0.78259400
    63  S          0.35638700       0.98267900       0.61164400
    64  S          0.15846700       0.18908100       0.56894400
    65  S          0.04441700       0.95382890       0.21948400
    66  S          0.17758700       0.32066100       0.72748400
    67  C          0.40132000       0.22844000       0.83231150
    68  C          0.24722000       0.28494000       0.82515150
    69  C          0.31752000       0.09424000       0.68850140
    70  C          0.22882000       0.18934000       0.66858140
    71  C          0.23792000       0.04693000       0.53856130
    72  C          0.21352000      -0.00994000       0.46352140
    73  C          0.21752000       0.84056000       0.33563140
    74  C          0.12872000       0.93356000       0.31442140
    75  C          0.16832000       0.72236000       0.18406150
    76  C          0.16492000       0.85616000       0.16341150
    77  H          0.43870000       0.22740000       0.88740000
    78  H          0.46930000       0.28180000       0.81050000
    79  H          0.25160000       0.36190000       0.86120000
    80  H          0.17680000       0.22620000       0.84100000
    81  H          0.21280000       0.67000000       0.14440000
    82  H          0.06630000       0.69080000       0.18280000
    83  H          0.12950000       0.85490000       0.10790000
    84  H          0.26580000       0.89330000       0.17330000
    85  S          0.34721700       0.18209110       0.27781400
    86  S          0.57971700       0.67695110       0.56781400
    87  S          0.40699700       0.32078110       0.43462400
    88  S          0.43894700       0.45180110       0.61318400
    89  S          0.51093700       0.45378110       0.21839400
    90  S          0.63810700       0.81348110       0.72524400
    91  S          0.54364700       0.54632110       0.38784400
    92  S          0.46812700       0.54336110       0.78248400
    93  C          0.59732000       0.66114000       0.84206150
    94  C          0.57662000       0.79194000       0.81816150
    95  C          0.49822000       0.57254000       0.68854140
    96  C          0.56292000       0.67664000       0.66683140
    97  C          0.49762000       0.52804000       0.53892140
    98  C          0.48332000       0.47104000       0.46233130
    99  C          0.41992000       0.31964000       0.33504140
   100  C          0.48272000       0.42424000       0.31294140
   101  C          0.41612000       0.20064000       0.18632150
   102  C          0.39212000       0.32954000       0.15897150
   103  H          0.58270000       0.66240000       0.89660000
   104  H          0.69920000       0.63700000       0.83770000
   105  H          0.63150000       0.85230000       0.85860000
   106  H          0.47130000       0.81070000       0.81530000
   107  H          0.52240000       0.18520000       0.19230000
   108  H          0.36660000       0.13710000       0.14600000
   109  H          0.28810000       0.35030000       0.16010000
   110  H          0.41150000       0.32600000       0.10510000
