data_CILHIO07
_symmetry_space_group_name_H-M    'P1'
_symmetry_Int_Tables_number       1
loop_
_symmetry_equiv_pos_site_id
_symmetry_equiv_pos_as_xyz
1 x,y,z
_cell_length_a                   6.4493
_cell_length_b                   8.9864
_cell_length_c                   15.03412
_cell_angle_alpha                94.794
_cell_angle_beta                 96.573
_cell_angle_gamma                111.293
loop_
_atom_site_label
_atom_site_type_symbol
_atom_site_fract_x
_atom_site_fract_y
_atom_site_fract_z
     1  I         -0.00000000       0.00000000       0.00000000
     2  I          0.42837000       0.24665000       0.98025000
     3  I          0.57163000       0.75335000       0.01975000
     4  S          0.46710000       0.74112000       0.44881000
     5  S          0.53290000       0.25888000       0.55119000
     6  S          0.09510000       0.85561000       0.43210000
     7  S          0.90490000       0.14439000       0.56790000
     8  S          0.28410000       0.56511000       0.62110000
     9  S          0.71590000       0.43489000       0.37890000
    10  S          0.90990000       0.68082000       0.59991000
    11  S          0.09010000       0.31918000       0.40009000
    12  S          0.63210000       0.85582000       0.28111000
    13  S          0.36790000       0.14418000       0.71889000
    14  S          0.20110000       0.00889000       0.26901000
    15  S          0.79890000      -0.00889000       0.73099000
    16  S          0.20410000       0.45301000       0.79801000
    17  S          0.79590000       0.54699000       0.20199000
    18  S          0.76090000       0.60061000       0.77410000
    19  S          0.23910000       0.39939000       0.22590000
    20  C          0.22789000       0.74252000       0.48578000
    21  C          0.77211000       0.25748000       0.51422000
    22  C          0.14906000       0.67026000       0.55974000
    23  C          0.85094000       0.32974000       0.44026000
    24  C          0.43486000       0.83876000       0.35474000
    25  C          0.56514000       0.16124000       0.64526000
    26  C          0.26626000       0.89516000       0.34804000
    27  C          0.73374000       0.10484000       0.65196000
    28  C          0.11806000       0.54196000       0.70824000
    29  C          0.88194000       0.45804000       0.29176000
    30  C          0.94874000       0.59756000       0.69884000
    31  C          0.05126000       0.40244000       0.30116000
    32  C          0.63906000       0.04364000       0.24325000
    33  C          0.36094000       0.95636000       0.75675000
    34  C          0.41216000       0.03174000       0.19475000
    35  C          0.58784000       0.96826000       0.80525000
    36  C          0.96334000       0.41096000       0.85685000
    37  C          0.03666000       0.58904000       0.14315000
    38  C          0.89924000       0.55666000       0.87415000
    39  C          0.10076000       0.44334000       0.12585000
    40  H          0.75610000       0.06339000       0.19231000
    41  H          0.24390000       0.93661000       0.80769000
    42  H          0.70410000       0.13510000       0.29610000
    43  H          0.29590000       0.86490000       0.70390000
    44  H          0.43210000       0.14871000       0.17210000
    45  H          0.56790000       0.85129000       0.82790000
    46  H          0.35120000      -0.00110000       0.14110000
    47  H          0.64880000       0.00110000       0.85890000
    48  H          0.81990000       0.30819000       0.81910000
    49  H          0.18010000       0.69181000       0.18090000
    50  H          0.01910000       0.37490000       0.91910000
    51  H         -0.01910000       0.62510000       0.08090000
    52  H          0.77290000       0.53301000       0.91991000
    53  H          0.22710000       0.46699000       0.08009000
    54  H          0.04410000       0.66301000       0.90410000
    55  H          0.95590000       0.33699000       0.09590000
