data_CINMAC06
_symmetry_space_group_name_H-M    'P1'
_symmetry_Int_Tables_number       1
loop_
_symmetry_equiv_pos_site_id
_symmetry_equiv_pos_as_xyz
1 x,y,z
_cell_length_a                   31.2964
_cell_length_b                   4.015217
_cell_length_c                   6.0832
_cell_angle_alpha                90.0
_cell_angle_beta                 90.14619
_cell_angle_gamma                90.0
loop_
_atom_site_label
_atom_site_type_symbol
_atom_site_fract_x
_atom_site_fract_y
_atom_site_fract_z
     1  C          0.46328800       0.15953000       0.77174000
     2  C          0.03671200       0.65953000       0.22826000
     3  C          0.53671200       0.84047000       0.22826000
     4  C          0.96328800       0.34047000       0.77174000
     5  C          0.43597700       0.28183000       0.59464000
     6  C          0.06402300       0.78183000       0.40536000
     7  C          0.56402300       0.71817000       0.40536000
     8  C          0.93597700       0.21817000       0.59464000
     9  C          0.39434800       0.23524000       0.59384000
    10  C          0.10565200       0.73524000       0.40616000
    11  C          0.60565200       0.76476000       0.40616000
    12  C          0.89434800       0.26476000       0.59384000
    13  C          0.36306700       0.34144000       0.43034000
    14  C          0.13693300       0.84144000       0.56966000
    15  C          0.63693300       0.65856000       0.56966000
    16  C          0.86306700       0.15856000       0.43034000
    17  C          0.37426800       0.49863000       0.23564000
    18  C          0.12573200      -0.00137000       0.76436000
    19  C          0.62573200       0.50137000       0.76436000
    20  C          0.87426800       0.00137000       0.23564000
    21  C          0.34367100       0.58903000       0.08604000
    22  C          0.15632900       0.08903000       0.91396000
    23  C          0.65632900       0.41097000       0.91396000
    24  C          0.84367100       0.91097000       0.08604000
    25  C          0.30103100       0.52522000       0.12635000
    26  C          0.19896900       0.02522000       0.87365000
    27  C          0.69896900       0.47478000       0.87365000
    28  C          0.80103100      -0.02522000       0.12635000
    29  C          0.28937800       0.37292000       0.31785000
    30  C          0.21062200       0.87292000       0.68215000
    31  C          0.71062200       0.62708000       0.68215000
    32  C          0.78937800       0.12708000       0.31785000
    33  C          0.32006800       0.28263000       0.46834000
    34  C          0.17993200       0.78263000       0.53166000
    35  C          0.67993200       0.71737000       0.53166000
    36  C          0.82006800       0.21737000       0.46834000
    37  O          0.50315500       0.22774000       0.75853000
    38  O         -0.00315500       0.72774000       0.24147000
    39  O          0.49684500       0.77226000       0.24147000
    40  O          0.00315500       0.27226000       0.75853000
    41  O          0.44798500      -0.00175000       0.92783000
    42  O          0.05201500       0.49825000       0.07217000
    43  O          0.55201500       0.00175000       0.07217000
    44  O          0.94798500       0.50175000       0.92783000
    45  H          0.52481300       0.12190000       0.90070000
    46  H          0.97518700       0.62190000       0.09930000
    47  H          0.47518700       0.87810000       0.09930000
    48  H          0.02481300       0.37810000       0.90070000
    49  H          0.44870000       0.39920000       0.47590000
    50  H          0.05130000       0.89920000       0.52410000
    51  H          0.55130000       0.60080000       0.52410000
    52  H          0.94870000       0.10080000       0.47590000
    53  H          0.38320000       0.11660000       0.71610000
    54  H          0.11680000       0.61660000       0.28390000
    55  H          0.61680000       0.88340000       0.28390000
    56  H          0.88320000       0.38340000       0.71610000
    57  H          0.40350000       0.54420000       0.20590000
    58  H          0.09650000       0.04420000       0.79410000
    59  H          0.59650000       0.45580000       0.79410000
    60  H          0.90350000       0.95580000       0.20590000
    61  H          0.35180000       0.69630000       0.95330000
    62  H          0.14820000       0.19630000       0.04670000
    63  H          0.64820000       0.30370000       0.04670000
    64  H          0.85180000       0.80370000       0.95330000
    65  H          0.27990000       0.58710000       0.02150000
    66  H          0.22010000       0.08710000      -0.02150000
    67  H          0.72010000       0.41290000      -0.02150000
    68  H          0.77990000       0.91290000       0.02150000
    69  H          0.26010000       0.32950000       0.34680000
    70  H          0.23990000       0.82950000       0.65320000
    71  H          0.73990000       0.67050000       0.65320000
    72  H          0.76010000       0.17050000       0.34680000
    73  H          0.31160000       0.17760000       0.60120000
    74  H          0.18840000       0.67760000       0.39880000
    75  H          0.68840000       0.82240000       0.39880000
    76  H          0.81160000       0.32240000       0.60120000
