data_CINMAC
_symmetry_space_group_name_H-M    'P1'
_symmetry_Int_Tables_number       1
loop_
_symmetry_equiv_pos_site_id
_symmetry_equiv_pos_as_xyz
1 x,y,z
_cell_length_a                   5.6441
_cell_length_b                   18.0116
_cell_length_c                   9.0193
_cell_angle_alpha                90.0
_cell_angle_beta                 121.472
_cell_angle_gamma                90.0
loop_
_atom_site_label
_atom_site_type_symbol
_atom_site_fract_x
_atom_site_fract_y
_atom_site_fract_z
     1  C          0.56900000       0.03920000       0.21740000
     2  C          0.43100000       0.53920000       0.28260000
     3  C          0.43100000       0.96080000       0.78260000
     4  C          0.56900000       0.46080000       0.71740000
     5  C          0.62070000       0.06590000       0.38590000
     6  C          0.37930000       0.56590000       0.11410000
     7  C          0.37930000       0.93410000       0.61410000
     8  C          0.62070000       0.43410000       0.88590000
     9  C          0.43000000       0.10150000       0.40140000
    10  C          0.57000000       0.60150000       0.09860000
    11  C          0.57000000       0.89850000       0.59860000
    12  C          0.43000000       0.39850000       0.90140000
    13  C          0.46340000       0.13090000       0.56300000
    14  C          0.53660000       0.63090000       0.93700000
    15  C          0.53660000       0.86910000       0.43700000
    16  C          0.46340000       0.36910000       0.06300000
    17  C          0.70290000       0.11960000       0.72440000
    18  C          0.29710000       0.61960000       0.77560000
    19  C          0.29710000       0.88040000       0.27560000
    20  C          0.70290000       0.38040000       0.22440000
    21  C          0.72690000       0.14970000       0.87290000
    22  C          0.27310000       0.64970000       0.62710000
    23  C          0.27310000       0.85030000       0.12710000
    24  C          0.72690000       0.35030000       0.37290000
    25  C          0.51360000       0.19000000       0.86410000
    26  C          0.48640000       0.69000000       0.63590000
    27  C          0.48640000       0.81000000       0.13590000
    28  C          0.51360000       0.31000000       0.36410000
    29  C          0.27470000       0.20220000       0.70480000
    30  C          0.72530000       0.70220000       0.79520000
    31  C          0.72530000       0.79780000       0.29520000
    32  C          0.27470000       0.29780000       0.20480000
    33  C          0.24850000       0.17250000       0.55460000
    34  C          0.75150000       0.67250000       0.94540000
    35  C          0.75150000       0.82750000       0.44540000
    36  C          0.24850000       0.32750000       0.05460000
    37  H          0.28200000       0.02100000       0.94800000
    38  H          0.71800000       0.52100000       0.55200000
    39  H          0.71800000       0.97900000       0.05200000
    40  H          0.28200000       0.47900000       0.44800000
    41  H          0.80800000       0.05900000       0.48800000
    42  H          0.19200000       0.55900000       0.01200000
    43  H          0.19200000       0.94100000       0.51200000
    44  H          0.80800000       0.44100000      -0.01200000
    45  H          0.24000000       0.11000000       0.29600000
    46  H          0.76000000       0.61000000       0.20400000
    47  H          0.76000000       0.89000000       0.70400000
    48  H          0.24000000       0.39000000       0.79600000
    49  H          0.87500000       0.09200000       0.74300000
    50  H          0.12500000       0.59200000       0.75700000
    51  H          0.12500000       0.90800000       0.25700000
    52  H          0.87500000       0.40800000       0.24300000
    53  H          0.90900000       0.14100000      -0.00500000
    54  H          0.09100000       0.64100000       0.50500000
    55  H          0.09100000       0.85900000       0.00500000
    56  H          0.90900000       0.35900000       0.49500000
    57  H          0.53000000       0.21300000       0.97500000
    58  H          0.47000000       0.71300000       0.52500000
    59  H          0.47000000       0.78700000       0.02500000
    60  H          0.53000000       0.28700000       0.47500000
    61  H          0.11300000       0.23400000       0.69500000
    62  H          0.88700000       0.73400000       0.80500000
    63  H          0.88700000       0.76600000       0.30500000
    64  H          0.11300000       0.26600000       0.19500000
    65  H          0.07800000       0.18800000       0.44300000
    66  H          0.92200000       0.68800000       0.05700000
    67  H          0.92200000       0.81200000       0.55700000
    68  H          0.07800000       0.31200000       0.94300000
    69  O          0.32700000       0.04820000       0.08260000
    70  O          0.67300000       0.54820000       0.41740000
    71  O          0.67300000       0.95180000       0.91740000
    72  O          0.32700000       0.45180000       0.58260000
    73  O          0.76310000       0.00730000       0.21220000
    74  O          0.23690000       0.50730000       0.28780000
    75  O          0.23690000      -0.00730000       0.78780000
    76  O          0.76310000       0.49270000       0.71220000
