data_CINMAC08
_symmetry_space_group_name_H-M    'P1'
_symmetry_Int_Tables_number       1
loop_
_symmetry_equiv_pos_site_id
_symmetry_equiv_pos_as_xyz
1 x,y,z
_cell_length_a                   5.65145
_cell_length_b                   17.982918
_cell_length_c                   7.74006
_cell_angle_alpha                90.0
_cell_angle_beta                 96.8339
_cell_angle_gamma                90.0
loop_
_atom_site_label
_atom_site_type_symbol
_atom_site_fract_x
_atom_site_fract_y
_atom_site_fract_z
     1  C          0.14893000       0.03889110       0.71808000
     2  C          0.35107000       0.53889110       0.78192000
     3  C          0.85107000       0.96110890       0.28192000
     4  C          0.64893000       0.46110890       0.21808000
     5  C          0.26463000       0.06568100       0.88488000
     6  C          0.23537000       0.56568100       0.61512000
     7  C          0.73537000       0.93431900       0.11512000
     8  C          0.76463000       0.43431900       0.38488000
     9  C          0.47024000       0.10146100       0.90177000
    10  C          0.02976000       0.60146100       0.59823000
    11  C          0.52976000       0.89853900       0.09823000
    12  C          0.97024000       0.39853900       0.40177000
    13  C          0.59843000       0.13138900       0.06252000
    14  C          0.90157000       0.63138900       0.43748000
    15  C          0.40157000       0.86861100       0.93748000
    16  C          0.09843000       0.36861100       0.56252000
    17  C          0.80483000       0.17284110       0.05483000
    18  C          0.69517000       0.67284110       0.44517000
    19  C          0.19517000       0.82715890       0.94517000
    20  C          0.30483000       0.32715890       0.55483000
    21  C          0.92704000       0.20202120       0.20423000
    22  C          0.57296000       0.70202120       0.29577000
    23  C          0.07296000       0.79797880       0.79577000
    24  C          0.42704000       0.29797880       0.70423000
    25  C          0.84934000       0.19011120       0.36243000
    26  C          0.65066000       0.69011120       0.13757000
    27  C          0.15066000       0.80988880       0.63757000
    28  C          0.34934000       0.30988880       0.86243000
    29  C          0.64604000       0.14965130       0.37183000
    30  C          0.85396000       0.64965130       0.12817000
    31  C          0.35396000       0.85034870       0.62817000
    32  C          0.14604000       0.35034870       0.87183000
    33  C          0.52134000       0.12040110       0.22322000
    34  C         -0.02134000       0.62040110       0.27678000
    35  C          0.47866000       0.87959890       0.77678000
    36  C          0.02134000       0.37959890       0.72322000
    37  O          0.25523000       0.04830800       0.58286830
    38  O          0.24477000       0.54830800       0.91713170
    39  O          0.74477000       0.95169200       0.41713170
    40  O          0.75523000       0.45169200       0.08286830
    41  O          0.94978000       0.00745900       0.71259830
    42  O          0.55022000       0.50745900       0.78740170
    43  O          0.05022000      -0.00745900       0.28740170
    44  O          0.44978000       0.49254100       0.21259830
    45  H          0.18230000       0.05581000      -0.01630000
    46  H          0.31770000       0.55581000       0.51630000
    47  H          0.81770000       0.94419000       0.01630000
    48  H          0.68230000       0.44419000       0.48370000
    49  H          0.54830000       0.10969000       0.80180000
    50  H          0.95170000       0.60969000       0.69820000
    51  H          0.45170000       0.89031000       0.19820000
    52  H          0.04830000       0.39031000       0.30180000
    53  H          0.86130000       0.18001000       0.94470000
    54  H          0.63870000       0.68001000       0.55530000
    55  H          0.13870000       0.81999000       0.05530000
    56  H          0.36130000       0.31999000       0.44470000
    57  H          0.06140000       0.22861300       0.19530000
    58  H          0.43860000       0.72861300       0.30470000
    59  H          0.93860000       0.77138700       0.80470000
    60  H          0.56140000       0.27138700       0.69530000
    61  H          0.93640000       0.21161300       0.46730000
    62  H          0.56360000       0.71161300       0.03270000
    63  H          0.06360000       0.78838700       0.53270000
    64  H          0.43640000       0.28838700       0.96730000
    65  H          0.57740000       0.14121300       0.48530000
    66  H          0.92260000       0.64121300       0.01470000
    67  H          0.42260000       0.85878700       0.51470000
    68  H          0.07740000       0.35878700      -0.01470000
    69  H          0.37940000       0.09271200       0.23330000
    70  H          0.12060000       0.59271200       0.26670000
    71  H          0.62060000       0.90728800       0.76670000
    72  H          0.87940000       0.40728800       0.73330000
    73  H          0.13550000       0.02111900       0.43750000
    74  H          0.36450000       0.52111900       0.06250000
    75  H          0.86450000       0.97888100       0.56250000
    76  H          0.63550000       0.47888100       0.93750000
