data_CLACAM02
_symmetry_space_group_name_H-M    'P1'
_symmetry_Int_Tables_number       1
loop_
_symmetry_equiv_pos_site_id
_symmetry_equiv_pos_as_xyz
1 x,y,z
_cell_length_a                   10.27
_cell_length_b                   5.15
_cell_length_c                   7.45
_cell_angle_alpha                90.0
_cell_angle_beta                 102.5
_cell_angle_gamma                90.0
loop_
_atom_site_label
_atom_site_type_symbol
_atom_site_fract_x
_atom_site_fract_y
_atom_site_fract_z
     1  Cl         0.38500000       0.23300000       0.11300000
     2  Cl         0.61500000       0.73300000       0.38700000
     3  Cl         0.61500000       0.76700000       0.88700000
     4  Cl         0.38500000       0.26700000       0.61300000
     5  C          0.30500000       0.53300000       0.08500000
     6  C          0.69500000       0.03300000       0.41500000
     7  C          0.69500000       0.46700000       0.91500000
     8  C          0.30500000       0.96700000       0.58500000
     9  C          0.18000000       0.53300000       0.94800000
    10  C          0.82000000       0.03300000       0.55200000
    11  C          0.82000000       0.46700000       0.05200000
    12  C          0.18000000       0.96700000       0.44800000
    13  O          0.13800000       0.71700000       0.86300000
    14  O          0.86200000       0.21700000       0.63700000
    15  O          0.86200000       0.28300000       0.13700000
    16  O          0.13800000       0.78300000       0.36300000
    17  N          0.11800000       0.29500000       0.90200000
    18  N          0.88200000       0.79500000       0.59800000
    19  N          0.88200000       0.70500000       0.09800000
    20  N          0.11800000       0.20500000       0.40200000
