data_CLACAM01
_symmetry_space_group_name_H-M    'P1'
_symmetry_Int_Tables_number       1
loop_
_symmetry_equiv_pos_site_id
_symmetry_equiv_pos_as_xyz
1 x,y,z
_cell_length_a                   10.256
_cell_length_b                   5.183
_cell_length_c                   7.434
_cell_angle_alpha                90.0
_cell_angle_beta                 102.005
_cell_angle_gamma                90.0
loop_
_atom_site_label
_atom_site_type_symbol
_atom_site_fract_x
_atom_site_fract_y
_atom_site_fract_z
     1  Cl         0.11500000       0.18100000       0.13000000
     2  Cl         0.88500000       0.68100000       0.37000000
     3  Cl         0.88500000       0.81900000       0.87000000
     4  Cl         0.11500000       0.31900000       0.63000000
     5  C          0.19100000       0.48300000       0.18200000
     6  C          0.80900000      -0.01700000       0.31800000
     7  C          0.80900000       0.51700000       0.81800000
     8  C          0.19100000       0.01700000       0.68200000
     9  C          0.32400000       0.48700000       0.32200000
    10  C          0.67600000      -0.01300000       0.17800000
    11  C          0.67600000       0.51300000       0.67800000
    12  C          0.32400000       0.01300000       0.82200000
    13  O          0.36000000       0.70000000       0.39500000
    14  O          0.64000000       0.20000000       0.10500000
    15  O          0.64000000       0.30000000       0.60500000
    16  O          0.36000000       0.80000000       0.89500000
    17  N          0.38300000       0.27000000       0.34100000
    18  N          0.61700000       0.77000000       0.15900000
    19  N          0.61700000       0.73000000       0.65900000
    20  N          0.38300000       0.23000000       0.84100000
