data_CLACAM
_symmetry_space_group_name_H-M    'P1'
_symmetry_Int_Tables_number       1
loop_
_symmetry_equiv_pos_site_id
_symmetry_equiv_pos_as_xyz
1 x,y,z
_cell_length_a                   10.2801
_cell_length_b                   5.1451
_cell_length_c                   7.4291
_cell_angle_alpha                90.0
_cell_angle_beta                 98.825
_cell_angle_gamma                90.0
loop_
_atom_site_label
_atom_site_type_symbol
_atom_site_fract_x
_atom_site_fract_y
_atom_site_fract_z
     1  Cl         0.11300000       0.32000000       0.17500000
     2  Cl         0.88700000       0.82000000       0.32500000
     3  Cl         0.88700000       0.68000000       0.82500000
     4  Cl         0.11300000       0.18000000       0.67500000
     5  C          0.19500000       0.01100000       0.16200000
     6  C          0.80500000       0.51100000       0.33800000
     7  C          0.80500000      -0.01100000       0.83800000
     8  C          0.19500000       0.48900000       0.66200000
     9  C          0.32300000       0.02000000       0.09600000
    10  C          0.67700000       0.52000000       0.40400000
    11  C          0.67700000      -0.02000000       0.90400000
    12  C          0.32300000       0.48000000       0.59600000
    13  O          0.36200000       0.79900000       0.06600000
    14  O          0.63800000       0.29900000       0.43400000
    15  O          0.63800000       0.20100000       0.93400000
    16  O          0.36200000       0.70100000       0.56600000
    17  N          0.37900000       0.25000000       0.07500000
    18  N          0.62100000       0.75000000       0.42500000
    19  N          0.62100000       0.75000000       0.92500000
    20  N          0.37900000       0.25000000       0.57500000
