data_CMXLCS
_symmetry_space_group_name_H-M    'P1'
_symmetry_Int_Tables_number       1
loop_
_symmetry_equiv_pos_site_id
_symmetry_equiv_pos_as_xyz
1 x,y,z
_cell_length_a                   4.7862
_cell_length_b                   8.3121
_cell_length_c                   18.9145
_cell_angle_alpha                90.0
_cell_angle_beta                 90.0
_cell_angle_gamma                90.0
loop_
_atom_site_label
_atom_site_type_symbol
_atom_site_fract_x
_atom_site_fract_y
_atom_site_fract_z
     1  S          0.81200000       0.74820000       0.75400000
     2  S          0.31200000       0.75180000       0.24600000
     3  S          0.18800000       0.24820000       0.74600000
     4  S          0.68800000       0.25180000       0.25400000
     5  N          0.74580000       0.52220000       0.94420000
     6  N          0.24580000       0.97780000       0.05580000
     7  N          0.25420000       0.02220000       0.55580000
     8  N          0.75420000       0.47780000       0.44420000
     9  C          0.65790000       0.80520000       0.91810000
    10  C          0.15790000       0.69480000       0.08190000
    11  C          0.34210000       0.30520000       0.58190000
    12  C          0.84210000       0.19480000       0.41810000
    13  C          0.80900000       0.65510000       0.89320000
    14  C          0.30900000       0.84490000       0.10680000
    15  C          0.19100000       0.15510000       0.60680000
    16  C          0.69100000       0.34490000       0.39320000
    17  C          0.70950000       0.60300000       0.82040000
    18  C          0.20950000       0.89700000       0.17960000
    19  C          0.29050000       0.10300000       0.67960000
    20  C          0.79050000       0.39700000       0.32040000
    21  C          0.68580000       0.63010000       0.68090000
    22  C          0.18580000       0.86990000       0.31910000
    23  C          0.31420000       0.13010000       0.81910000
    24  C          0.81420000       0.36990000       0.18090000
    25  C          0.65350000       0.73120000       0.61550000
    26  C          0.15350000       0.76880000       0.38450000
    27  C          0.34650000       0.23120000       0.88450000
    28  C          0.84650000       0.26880000       0.11550000
    29  O          0.42680000       0.79080000       0.94580000
    30  O          0.92680000       0.70920000       0.05420000
    31  O          0.57320000       0.29080000       0.55420000
    32  O          0.07320000       0.20920000       0.44580000
    33  O          0.78280000       0.93570000       0.90530000
    34  O          0.28280000       0.56430000       0.09470000
    35  O          0.21720000       0.43570000       0.59470000
    36  O          0.71720000       0.06430000       0.40530000
    37  O          0.77160000       0.86150000       0.60980000
    38  O          0.27160000       0.63850000       0.39020000
    39  O          0.22840000       0.36150000       0.89020000
    40  O          0.72840000       0.13850000       0.10980000
    41  O          0.48840000       0.67770000       0.56750000
    42  O         -0.01160000       0.82230000       0.43250000
    43  O          0.51160000       0.17770000       0.93250000
    44  O          0.01160000       0.32230000       0.06750000
    45  O          0.12380000       0.74540000       0.75160000
    46  O          0.62380000       0.75460000       0.24840000
    47  O          0.87620000       0.24540000       0.74840000
    48  O          0.37620000       0.25460000       0.25160000
    49  H          0.00900000       0.67500000       0.89100000
    50  H          0.50900000       0.82500000       0.10900000
    51  H         -0.00900000       0.17500000       0.60900000
    52  H          0.49100000       0.32500000       0.39100000
    53  H          0.80100000       0.49600000       0.81000000
    54  H          0.30100000       0.00400000       0.19000000
    55  H          0.19900000      -0.00400000       0.69000000
    56  H          0.69900000       0.50400000       0.31000000
    57  H          0.49900000       0.59700000       0.81400000
    58  H         -0.00100000       0.90300000       0.18600000
    59  H          0.50100000       0.09700000       0.68600000
    60  H          0.00100000       0.40300000       0.31400000
    61  H          0.83700000       0.54100000       0.66800000
    62  H          0.33700000       0.95900000       0.33200000
    63  H          0.16300000       0.04100000       0.83200000
    64  H          0.66300000       0.45900000       0.16800000
    65  H          0.51500000       0.59200000       0.69200000
    66  H          0.01500000       0.90800000       0.30800000
    67  H          0.48500000       0.09200000       0.80800000
    68  H         -0.01500000       0.40800000       0.19200000
    69  H          0.56900000       0.48400000       0.94200000
    70  H          0.06900000       0.01600000       0.05800000
    71  H          0.43100000      -0.01600000       0.55800000
    72  H          0.93100000       0.51600000       0.44200000
    73  H          0.77900000       0.55100000       0.98900000
    74  H          0.27900000       0.94900000       0.01100000
    75  H          0.22100000       0.05100000       0.51100000
    76  H          0.72100000       0.44900000       0.48900000
    77  H          0.84200000       0.44300000       0.93600000
    78  H          0.34200000       0.05700000       0.06400000
    79  H          0.15800000       0.94300000       0.56400000
    80  H          0.65800000       0.55700000       0.43600000
    81  H          0.67400000       0.04200000       0.91700000
    82  H          0.17400000       0.45800000       0.08300000
    83  H          0.32600000       0.54200000       0.58300000
    84  H          0.82600000       0.95800000       0.41700000
