data_CMXLCS01
_symmetry_space_group_name_H-M    'P1'
_symmetry_Int_Tables_number       1
loop_
_symmetry_equiv_pos_site_id
_symmetry_equiv_pos_as_xyz
1 x,y,z
_cell_length_a                   4.70293
_cell_length_b                   5.04184
_cell_length_c                   8.13306
_cell_angle_alpha                85.334718
_cell_angle_beta                 87.269917
_cell_angle_gamma                74.701118
loop_
_atom_site_label
_atom_site_type_symbol
_atom_site_fract_x
_atom_site_fract_y
_atom_site_fract_z
     1  S          0.66715300       0.79186300       0.55472300
     2  O          0.25146190       0.37999180       0.00232110
     3  O          0.49732000       0.03152000       0.64708120
     4  O          0.08201190       0.02392170       0.94703120
     5  O          0.52342000       0.05478190       0.22554120
     6  H          0.41560000       0.19350000       0.16230000
     7  O          0.77022000       0.36728190       0.26535120
     8  N          0.68452000       0.69944190       0.95603120
     9  H          0.67060000       0.62750000       0.05630000
    10  H          0.78250000       0.81750000       0.95830000
    11  H          0.51460000       0.78550000       0.92830000
    12  C          0.82332000       0.47762000       0.84389140
    13  H          0.67550000       0.39750000       0.81730000
    14  C          0.07282000       0.27332000       0.93860130
    15  C          0.95432000       0.59512000       0.68901130
    16  H          0.06250000       0.45350000       0.62830000
    17  H          0.08350000       0.73950000       0.72530000
    18  C          0.72532000       0.14042000       0.29311130
    19  C          0.90913000       0.92532000       0.41180140
    20  H          0.03560000      -0.01250000       0.47830000
    21  H          0.00560000       0.78050000       0.36130000
