data_CMXLCS02
_symmetry_space_group_name_H-M    'P1'
_symmetry_Int_Tables_number       1
loop_
_symmetry_equiv_pos_site_id
_symmetry_equiv_pos_as_xyz
1 x,y,z
_cell_length_a                   4.74052
_cell_length_b                   8.29493
_cell_length_c                   18.83687
_cell_angle_alpha                90.0
_cell_angle_beta                 90.0
_cell_angle_gamma                90.0
loop_
_atom_site_label
_atom_site_type_symbol
_atom_site_fract_x
_atom_site_fract_y
_atom_site_fract_z
     1  S          0.31093100       0.74495500       0.25360200
     2  S          0.18906900       0.25504500       0.75360200
     3  S          0.68906900       0.24495500       0.24639800
     4  S          0.81093100       0.75504500       0.74639800
     5  O          0.92317000       0.79019160       0.44544700
     6  O          0.57683000       0.20980840       0.94544700
     7  O          0.07683000       0.29019160       0.05455300
     8  O          0.42317000       0.70980840       0.55455300
     9  O          0.29223000       0.93446160       0.40635700
    10  O          0.20777000       0.06553840       0.90635700
    11  O          0.70777000       0.43446160       0.09364300
    12  O          0.79223000       0.56553840       0.59364300
    13  O         -0.01913000       0.67693180       0.06561800
    14  O          0.51913000       0.32306820       0.56561800
    15  O          0.01913000       0.17693180       0.43438200
    16  O          0.48087000       0.82306820       0.93438200
    17  O          0.27283000       0.85987170       0.10865700
    18  O          0.22717000       0.14012830       0.60865700
    19  O          0.72717000       0.35987170       0.39134300
    20  O          0.77283000       0.64012830       0.89134300
    21  O          0.62673000       0.74233180       0.25103700
    22  O          0.87327000       0.25766820       0.75103700
    23  O          0.37327000       0.24233180       0.24896300
    24  O          0.12673000       0.75766820       0.74896300
    25  N          0.24224000       0.51892000       0.44529900
    26  N          0.25776000       0.48108000       0.94529900
    27  N          0.75776000       0.01892000       0.05470100
    28  N          0.74224000       0.98108000       0.55470100
    29  C          0.16014000       0.80312000       0.41839100
    30  C          0.33986000       0.19688000       0.91839100
    31  C          0.83986000       0.30312000       0.08160900
    32  C          0.66014000       0.69688000       0.58160900
    33  C          0.14954000       0.72922000       0.11427900
    34  C          0.35046000       0.27078000       0.61427900
    35  C          0.85046000       0.22922000       0.38572100
    36  C          0.64954000       0.77078000       0.88572100
    37  C          0.20875000       0.59872000       0.32013900
    38  C          0.29125000       0.40128000       0.82013900
    39  C          0.79125000       0.09872000       0.17986100
    40  C          0.70875000       0.90128000       0.67986100
    41  H          0.00081300       0.58753100       0.32047500
    42  H          0.49918700       0.41246900       0.82047500
    43  H         -0.00081300       0.08753100       0.17952500
    44  H          0.50081300       0.91246900       0.67952500
    45  H          0.29085900       0.49236600       0.30811300
    46  H          0.20914100       0.50763400       0.80811300
    47  H          0.70914100      -0.00763400       0.19188700
    48  H          0.79085900       0.00763400       0.69188700
    49  C          0.18135000       0.62582000       0.17996100
    50  C          0.31865000       0.37418000       0.67996100
    51  C          0.81865000       0.12582000       0.32003900
    52  C          0.68135000       0.87418000       0.82003900
    53  H          0.31452400       0.53665000       0.17015300
    54  H          0.18547600       0.46335000       0.67015300
    55  H          0.68547600       0.03665000       0.32984700
    56  H          0.81452400       0.96335000       0.82984700
    57  H         -0.00344300       0.57815900       0.19257400
    58  H          0.50344300       0.42184100       0.69257400
    59  H          0.00344300       0.07815900       0.30742600
    60  H          0.49655700       0.92184100       0.80742600
    61  C          0.31045000       0.65052000       0.39383100
    62  C          0.18955000       0.34948000       0.89383100
    63  C          0.68955000       0.15052000       0.10616900
    64  C          0.81045000       0.84948000       0.60616900
    65  H          0.51873900       0.66912600       0.39288700
    66  H         -0.01873900       0.33087400       0.89288700
    67  H          0.48126100       0.16912600       0.10711300
    68  H          0.01873900       0.83087400       0.60711300
    69  H          0.06470000       0.48830000       0.44231400
    70  H          0.43530000       0.51170000       0.94231400
    71  H          0.93530000      -0.01170000       0.05768600
    72  H          0.56470000       0.01170000       0.55768600
    73  H          0.34560000       0.43730000       0.43921300
    74  H          0.15440000       0.56270000       0.93921300
    75  H          0.65440000       0.93730000       0.06078700
    76  H          0.84560000       0.06270000       0.56078700
    77  H          0.27260000       0.55630000       0.48991400
    78  H          0.22740000       0.44370000       0.98991400
    79  H          0.72740000       0.05630000       0.01008600
    80  H          0.77260000       0.94370000       0.51008600
    81  H          0.87540000       0.55630000       0.07831300
    82  H          0.62460000       0.44370000       0.57831300
    83  H          0.12460000       0.05630000       0.42168700
    84  H          0.37540000       0.94370000       0.92168700
