data_COMXAD02
_symmetry_space_group_name_H-M    'P1'
_symmetry_Int_Tables_number       1
loop_
_symmetry_equiv_pos_site_id
_symmetry_equiv_pos_as_xyz
1 x,y,z
_cell_length_a                   10.6505
_cell_length_b                   7.8731
_cell_length_c                   8.3581
_cell_angle_alpha                90.0
_cell_angle_beta                 109.763
_cell_angle_gamma                90.0
loop_
_atom_site_label
_atom_site_type_symbol
_atom_site_fract_x
_atom_site_fract_y
_atom_site_fract_z
     1  P          0.76475300       0.42464400       0.47926400
     2  P          0.23524700       0.92464400       0.02073600
     3  P          0.23524700       0.57535600       0.52073600
     4  P          0.76475300       0.07535600       0.97926400
     5  O          0.84041000       0.42062000       0.34411000
     6  O          0.15959000       0.92062000       0.15589000
     7  O          0.15959000       0.57938000       0.65589000
     8  O          0.84041000       0.07938000       0.84411000
     9  O          0.62331000       0.35962000       0.39491000
    10  O          0.37669000       0.85962000       0.10509000
    11  O          0.37669000       0.64038000       0.60509000
    12  O          0.62331000       0.14038000       0.89491000
    13  O          0.76707900       0.61281000       0.52501000
    14  O          0.23292100       0.11281000       0.97499000
    15  O          0.23292100       0.38719000       0.47499000
    16  O          0.76707900       0.88719000       0.02501000
    17  O          0.84331000       0.31842000       0.63121000
    18  O          0.15669000       0.81842000       0.86879000
    19  O          0.15669000       0.68158000       0.36879000
    20  O          0.84331000       0.18158000       0.13121000
    21  H          0.82930000       0.34540000       0.28840000
    22  H          0.17070000       0.84540000       0.21160000
    23  H          0.17070000       0.65460000       0.71160000
    24  H          0.82930000       0.15460000       0.78840000
    25  N          0.08541000       0.19002000       0.62821000
    26  N          0.91459000       0.69002000       0.87179000
    27  N          0.91459000       0.80998000       0.37179000
    28  N          0.08541000       0.30998000       0.12821000
    29  C          0.06131000       0.05002000       0.50332000
    30  C          0.93869000       0.55002000      -0.00332000
    31  C          0.93869000       0.94998000       0.49668000
    32  C          0.06131000       0.44998000       0.00332000
    33  H          0.12920000       0.16130000       0.72930000
    34  H          0.87080000       0.66130000       0.77070000
    35  H          0.87080000       0.83870000       0.27070000
    36  H          0.12920000       0.33870000       0.22930000
    37  H          0.14320000       0.27030000       0.59930000
    38  H          0.85680000       0.77030000       0.90070000
    39  H          0.85680000       0.72970000       0.40070000
    40  H          0.14320000       0.22970000       0.09930000
    41  H          0.01220000       0.23030000       0.62130000
    42  H         -0.01220000       0.73030000       0.87870000
    43  H         -0.01220000       0.76970000       0.37870000
    44  H          0.01220000       0.26970000       0.12130000
    45  H          0.14120000       0.98060000       0.53630000
    46  H          0.85880000       0.48060000       0.96370000
    47  H          0.85880000       0.01940000       0.46370000
    48  H          0.14120000       0.51940000       0.03630000
    49  H          0.04720000       0.09840000       0.39230000
    50  H          0.95280000       0.59840000       0.10770000
    51  H          0.95280000       0.90160000       0.60770000
    52  H          0.04720000       0.40160000       0.89230000
    53  N          0.52161000       0.72222000       0.93061000
    54  N          0.47839000       0.22222000       0.56939000
    55  N          0.47839000       0.27778000       0.06939000
    56  N          0.52161000       0.77778000       0.43061000
    57  C          0.56131000       0.55182000       0.00472000
    58  C          0.43869000       0.05182000       0.49528000
    59  C          0.43869000       0.44818000      -0.00472000
    60  C          0.56131000       0.94818000       0.50472000
    61  H          0.46820000       0.71430000       0.82230000
    62  H          0.53180000       0.21430000       0.67770000
    63  H          0.53180000       0.28570000       0.17770000
    64  H          0.46820000       0.78570000       0.32230000
    65  H          0.59720000       0.79030000       0.95730000
    66  H          0.40280000       0.29030000       0.54270000
    67  H          0.40280000       0.20970000       0.04270000
    68  H          0.59720000       0.70970000       0.45730000
    69  H          0.46420000       0.77530000      -0.01670000
    70  H          0.53580000       0.27530000       0.51670000
    71  H          0.53580000       0.22470000       0.01670000
    72  H          0.46420000       0.72470000       0.48330000
    73  H          0.62130000       0.49440000       0.94430000
    74  H          0.37870000      -0.00560000       0.55570000
    75  H          0.37870000       0.50560000       0.05570000
    76  H          0.62130000       0.00560000       0.44430000
    77  H          0.62030000       0.56440000       0.11530000
    78  H          0.37970000       0.06440000       0.38470000
    79  H          0.37970000       0.43560000       0.88470000
    80  H          0.62030000       0.93560000       0.61530000
