data_COMXAD
_symmetry_space_group_name_H-M    'P1'
_symmetry_Int_Tables_number       1
loop_
_symmetry_equiv_pos_site_id
_symmetry_equiv_pos_as_xyz
1 x,y,z
_cell_length_a                   7.5001
_cell_length_b                   8.0451
_cell_length_c                   11.8062
_cell_angle_alpha                90.0
_cell_angle_beta                 90.0
_cell_angle_gamma                110.131
loop_
_atom_site_label
_atom_site_type_symbol
_atom_site_fract_x
_atom_site_fract_y
_atom_site_fract_z
     1  N          0.24912000       0.22112000       0.34201000
     2  N          0.75088000       0.27888000       0.84201000
     3  N          0.75088000       0.77888000       0.65799000
     4  N          0.24912000       0.72112000       0.15799000
     5  N          0.74432000       0.28622000       0.44281000
     6  N          0.25568000       0.21378000       0.94281000
     7  N          0.25568000       0.71378000       0.55719000
     8  N          0.74432000       0.78622000       0.05719000
     9  C          0.45972000       0.29362000       0.34081000
    10  C          0.54028000       0.20638000       0.84081000
    11  C          0.54028000       0.70638000       0.65919000
    12  C          0.45972000       0.79362000       0.15919000
    13  C          0.53452000       0.21872000       0.43961000
    14  C          0.46548000       0.28128000       0.93961000
    15  C          0.46548000       0.78128000       0.56039000
    16  C          0.53452000       0.71872000       0.06039000
    17  H          0.21070000       0.07170000       0.34230000
    18  H          0.78930000       0.42830000       0.84230000
    19  H          0.78930000       0.92830000       0.65770000
    20  H          0.21070000       0.57170000       0.15770000
    21  H          0.21170000       0.28660000       0.42340000
    22  H          0.78830000       0.21340000       0.92340000
    23  H          0.78830000       0.71340000       0.57660000
    24  H          0.21170000       0.78660000       0.07660000
    25  H          0.19570000       0.26360000       0.27130000
    26  H          0.80430000       0.23640000       0.77130000
    27  H          0.80430000       0.73640000       0.72870000
    28  H          0.19570000       0.76360000       0.22870000
    29  H          0.80170000       0.24470000       0.36130000
    30  H          0.19830000       0.25530000       0.86130000
    31  H          0.19830000       0.75530000       0.63870000
    32  H          0.80170000       0.74470000       0.13870000
    33  H          0.77070000       0.41560000       0.45740000
    34  H          0.22930000       0.08440000       0.95740000
    35  H          0.22930000       0.58440000       0.54260000
    36  H          0.77070000       0.91560000       0.04260000
    37  H          0.77970000       0.24160000       0.51540000
    38  H          0.22030000       0.25840000       0.01540000
    39  H          0.22030000       0.75840000       0.48460000
    40  H          0.77970000       0.74160000       0.98460000
    41  H          0.51670000       0.28660000       0.26840000
    42  H          0.48330000       0.21340000       0.76840000
    43  H          0.48330000       0.71340000       0.73160000
    44  H          0.51670000       0.78660000       0.23160000
    45  H          0.49170000       0.44670000       0.34030000
    46  H          0.50830000       0.05330000       0.84030000
    47  H          0.50830000       0.55330000       0.65970000
    48  H          0.49170000       0.94670000       0.15970000
    49  H          0.46460000       0.23760000       0.50440000
    50  H          0.53540000       0.26240000       0.00440000
    51  H          0.53540000       0.76240000       0.49560000
    52  H          0.46460000       0.73760000      -0.00440000
    53  H          0.49860000       0.09570000       0.43630000
    54  H          0.50140000       0.40430000       0.93630000
    55  H          0.50140000       0.90430000       0.56370000
    56  H          0.49860000       0.59570000       0.06370000
    57  P          0.91490000       0.25800000       0.13600000
    58  P          0.08510000       0.24200000       0.63600000
    59  P          0.08510000       0.74200000       0.86400000
    60  P          0.91490000       0.75800000       0.36400000
    61  O          0.13091000       0.34711000       0.14471000
    62  O          0.86909000       0.15289000       0.64471000
    63  O          0.86909000       0.65289000       0.85529000
    64  O          0.13091000       0.84711000       0.35529000
    65  O          0.85832000       0.14261000       0.03051000
    66  O          0.14168000       0.35739000       0.53051000
    67  O          0.14168000       0.85739000       0.96949000
    68  O          0.85832000       0.64261000       0.46949000
    69  O          0.83482000       0.15731000       0.24411000
    70  O          0.16518000       0.34269000       0.74411000
    71  O          0.16518000       0.84269000       0.75589000
    72  O          0.83482000       0.65731000       0.25589000
    73  O          0.82252000       0.40601000       0.11811000
    74  O          0.17748000       0.09399000       0.61811000
    75  O          0.17748000       0.59399000       0.88189000
    76  O          0.82252000       0.90601000       0.38189000
    77  H          0.82660000       0.49070000       0.16130000
    78  H          0.17340000       0.00930000       0.66130000
    79  H          0.17340000       0.50930000       0.83870000
    80  H          0.82660000      -0.00930000       0.33870000
