data_COMXAD03
_symmetry_space_group_name_H-M    'P1'
_symmetry_Int_Tables_number       1
loop_
_symmetry_equiv_pos_site_id
_symmetry_equiv_pos_as_xyz
1 x,y,z
_cell_length_a                   10.1892
_cell_length_b                   7.8811
_cell_length_c                   8.0211
_cell_angle_alpha                90.0
_cell_angle_beta                 92.111
_cell_angle_gamma                90.0
loop_
_atom_site_label
_atom_site_type_symbol
_atom_site_fract_x
_atom_site_fract_y
_atom_site_fract_z
     1  P          0.25270600       0.06974800       0.39982800
     2  P          0.74729400       0.56974800       0.10017200
     3  P          0.74729400       0.93025200       0.60017200
     4  P          0.25270600       0.43025200       0.89982800
     5  O          0.30353000       0.06533000       0.58912000
     6  O          0.69647000       0.56533000       0.91088000
     7  O          0.69647000       0.93467000       0.41088000
     8  O          0.30353000       0.43467000       0.08912000
     9  O          0.26792000       0.88458000       0.34612000
    10  O          0.73208000       0.38458000       0.15388000
    11  O          0.73208000       0.11542000       0.65388000
    12  O          0.26792000       0.61542000       0.84612000
    13  O          0.11052000       0.12530000       0.38962000
    14  O          0.88948000       0.62530000       0.11038000
    15  O          0.88948000       0.87470000       0.61038000
    16  O          0.11052000       0.37470000       0.88962000
    17  O          0.33982000       0.18662000       0.30303000
    18  O          0.66018000       0.68662000       0.19697000
    19  O          0.66018000       0.81338000       0.69697000
    20  O          0.33982000       0.31338000       0.80303000
    21  H          0.29830000       0.14850000       0.65250000
    22  H          0.70170000       0.64850000       0.84750000
    23  H          0.70170000       0.85150000       0.34750000
    24  H          0.29830000       0.35150000       0.15250000
    25  N          0.96742000       0.29443000       0.60973000
    26  N          0.03258000       0.79443000       0.89027000
    27  N          0.03258000       0.70557000       0.39027000
    28  N          0.96742000       0.20557000       0.10973000
    29  C          0.93692000       0.45633000       0.52473000
    30  C          0.06308000       0.95633000       0.97527000
    31  C          0.06308000       0.54367000       0.47527000
    32  C          0.93692000       0.04367000       0.02473000
    33  H          0.01830000       0.22440000       0.54640000
    34  H          0.98170000       0.72440000       0.95360000
    35  H          0.98170000       0.77560000       0.45360000
    36  H          0.01830000       0.27560000       0.04640000
    37  H          0.01530000       0.31740000       0.70440000
    38  H          0.98470000       0.81740000       0.79560000
    39  H          0.98470000       0.68260000       0.29560000
    40  H          0.01530000       0.18260000       0.20440000
    41  H          0.89330000       0.23340000       0.63540000
    42  H          0.10670000       0.73340000       0.86460000
    43  H          0.10670000       0.76660000       0.36460000
    44  H          0.89330000       0.26660000       0.13540000
    45  H          0.88530000       0.52840000       0.59440000
    46  H          0.11470000       0.02840000       0.90560000
    47  H          0.11470000       0.47160000       0.40560000
    48  H          0.88530000       0.97160000       0.09440000
    49  H          0.87430000       0.43640000       0.42740000
    50  H          0.12570000       0.93640000       0.07260000
    51  H          0.12570000       0.56360000       0.57260000
    52  H          0.87430000       0.06360000       0.92740000
    53  N          0.42072000       0.80173000       0.07793000
    54  N          0.57928000       0.30173000       0.42207000
    55  N          0.57928000       0.19827000       0.92207000
    56  N          0.42072000       0.69827000       0.57793000
    57  C          0.44402000       0.94773000       0.96657000
    58  C          0.55598000       0.44773000       0.53343000
    59  C          0.55598000       0.05227000       0.03343000
    60  C          0.44402000       0.55227000       0.46657000
    61  H          0.49930000       0.78550000       0.10540000
    62  H          0.50070000       0.28550000       0.39460000
    63  H          0.50070000       0.21450000       0.89460000
    64  H          0.49930000       0.71450000       0.60540000
    65  H          0.37130000       0.71940000       0.02340000
    66  H          0.62870000       0.21940000       0.47660000
    67  H          0.62870000       0.28060000       0.97660000
    68  H          0.37130000       0.78060000       0.52340000
    69  H          0.37230000       0.83940000       0.16540000
    70  H          0.62770000       0.33940000       0.33460000
    71  H          0.62770000       0.16060000       0.83460000
    72  H          0.37230000       0.66060000       0.66540000
    73  H          0.35930000       0.01040000       0.95360000
    74  H          0.64070000       0.51040000       0.54640000
    75  H          0.64070000      -0.01040000       0.04640000
    76  H          0.35930000       0.48960000       0.45360000
    77  H          0.46240000       0.90350000       0.85350000
    78  H          0.53760000       0.40350000       0.64650000
    79  H          0.53760000       0.09650000       0.14650000
    80  H          0.46240000       0.59650000       0.35350000
