data_COSXEO01
_symmetry_space_group_name_H-M    'P1'
_symmetry_Int_Tables_number       1
loop_
_symmetry_equiv_pos_site_id
_symmetry_equiv_pos_as_xyz
1 x,y,z
_cell_length_a                   9.926218
_cell_length_b                   4.95589
_cell_length_c                   11.3912
_cell_angle_alpha                90.0
_cell_angle_beta                 93.0504
_cell_angle_gamma                90.0
loop_
_atom_site_label
_atom_site_type_symbol
_atom_site_fract_x
_atom_site_fract_y
_atom_site_fract_z
     1  C          0.08866110       0.60568000       0.66218100
     2  C          0.91133890       0.10568000       0.83781900
     3  C          0.91133890       0.39432000       0.33781900
     4  C          0.08866110       0.89432000       0.16218100
     5  H          0.07783600       0.61950300       0.74698300
     6  H          0.92216400       0.11950300       0.75301700
     7  H          0.92216400       0.38049700       0.25301700
     8  H          0.07783600       0.88049700       0.24698300
     9  H          0.12363300       0.42655300       0.64373900
    10  H          0.87636700       0.92655300       0.85626100
    11  H          0.87636700       0.57344700       0.35626100
    12  H          0.12363300       0.07344700       0.14373900
    13  H          0.00108600       0.63263400       0.61995800
    14  H         -0.00108600       0.13263400       0.88004200
    15  H         -0.00108600       0.36736600       0.38004200
    16  H          0.00108600       0.86736600       0.11995800
    17  C          0.18617100       0.81828000       0.62509900
    18  C          0.81382900       0.31828000       0.87490100
    19  C          0.81382900       0.18172000       0.37490100
    20  C          0.18617100       0.68172000       0.12509900
    21  C          0.28605110       0.92108000       0.70344100
    22  C          0.71394890       0.42108000       0.79655900
    23  C          0.71394890       0.07892000       0.29655900
    24  C          0.28605110       0.57892000       0.20344100
    25  H          0.29221400       0.85713600       0.78216200
    26  H          0.70778600       0.35713600       0.71783800
    27  H          0.70778600       0.14286400       0.21783800
    28  H          0.29221400       0.64286400       0.28216200
    29  C          0.37680110       0.11522000       0.66857100
    30  C          0.62319890       0.61522000       0.83142900
    31  C          0.62319890       0.88478000       0.33142900
    32  C          0.37680110       0.38478000       0.16857100
    33  H          0.44376400       0.18270000       0.72361300
    34  H          0.55623600       0.68270000       0.77638700
    35  H          0.55623600       0.81730000       0.27638700
    36  H          0.44376400       0.31730000       0.22361300
    37  C          0.37022100       0.21192000       0.55305100
    38  C          0.62977900       0.71192000       0.94694900
    39  C          0.62977900       0.78808000       0.44694900
    40  C          0.37022100       0.28808000       0.05305100
    41  C          0.27071110       0.10822000       0.47392100
    42  C          0.72928890       0.60822000       0.02607900
    43  C          0.72928890       0.89178000       0.52607900
    44  C          0.27071110       0.39178000       0.97392100
    45  H          0.26488800       0.17022600       0.39491200
    46  H          0.73511200       0.67022600       0.10508800
    47  H          0.73511200       0.82977400       0.60508800
    48  H          0.26488800       0.32977400       0.89491200
    49  C          0.18044110       0.91508000       0.51010100
    50  C          0.81955890       0.41508000      -0.01010100
    51  C          0.81955890       0.08492000       0.48989900
    52  C          0.18044110       0.58492000       0.01010100
    53  H          0.11329800       0.84745100       0.45524600
    54  H          0.88670200       0.34745100       0.04475400
    55  H          0.88670200       0.15254900       0.54475400
    56  H          0.11329800       0.65254900       0.95524600
    57  C          0.46226110       0.41462000       0.51607100
    58  C          0.53773890       0.91462000       0.98392900
    59  C          0.53773890       0.58538000       0.48392900
    60  C          0.46226110       0.08538000       0.01607100
