data_COSXEO02
_symmetry_space_group_name_H-M    'P1'
_symmetry_Int_Tables_number       1
loop_
_symmetry_equiv_pos_site_id
_symmetry_equiv_pos_as_xyz
1 x,y,z
_cell_length_a                   9.37094
_cell_length_b                   13.83226
_cell_length_c                   18.47627
_cell_angle_alpha                90.0
_cell_angle_beta                 102.9994
_cell_angle_gamma                90.0
loop_
_atom_site_label
_atom_site_type_symbol
_atom_site_fract_x
_atom_site_fract_y
_atom_site_fract_z
     1  C          0.86831160       0.41626120       0.13485800
     2  C          0.63168840       0.91626120       0.36514200
     3  C          0.13168840       0.58373880       0.86514200
     4  C          0.36831160       0.08373880       0.63485800
     5  C          0.88228160       0.49905120       0.11750800
     6  C          0.61771840      -0.00094880       0.38249200
     7  C          0.11771840       0.50094880       0.88249200
     8  C          0.38228160       0.00094880       0.61750800
     9  C          0.85436160       0.31712110       0.15422800
    10  C          0.64563840       0.81712110       0.34577200
    11  C          0.14563840       0.68287890       0.84577200
    12  C          0.35436160       0.18287890       0.65422800
    13  C          0.73854160       0.28583120       0.18501800
    14  C          0.76145840       0.78583120       0.31498200
    15  C          0.26145840       0.71416880       0.81498200
    16  C          0.23854160       0.21416880       0.68501800
    17  H          0.66827300       0.33102800       0.19409900
    18  H          0.83172700       0.83102800       0.30590100
    19  H          0.33172700       0.66897200       0.80590100
    20  H          0.16827300       0.16897200       0.69409900
    21  C          0.72649150       0.18972120       0.20210800
    22  C          0.77350850       0.68972120       0.29789200
    23  C          0.27350850       0.81027880       0.79789200
    24  C          0.22649150       0.31027880       0.70210800
    25  H          0.64767100       0.16976300       0.22316100
    26  H          0.85232900       0.66976300       0.27683900
    27  H          0.35232900       0.83023700       0.77683900
    28  H          0.14767100       0.33023700       0.72316100
    29  C          0.82662160       0.12090120       0.18936800
    30  C          0.67337840       0.62090120       0.31063200
    31  C          0.17337840       0.87909880       0.81063200
    32  C          0.32662160       0.37909880       0.68936800
    33  C          0.94252160       0.15266120       0.15906900
    34  C          0.55747840       0.65266120       0.34093100
    35  C          0.05747840       0.84733880       0.84093100
    36  C          0.44252160       0.34733880       0.65906900
    37  H          0.01259900       0.10725800       0.15005300
    38  H          0.48740100       0.60725800       0.34994700
    39  H         -0.01259900       0.89274200       0.84994700
    40  H          0.51259900       0.39274200       0.65005300
    41  C          0.95674160       0.24910110       0.14199900
    42  C          0.54325840       0.74910110       0.35800100
    43  C          0.04325840       0.75089890       0.85800100
    44  C          0.45674160       0.25089890       0.64199900
    45  H          0.03664900       0.26921500       0.12183000
    46  H          0.46335100       0.76921500       0.37817000
    47  H          0.96335100       0.73078500       0.87817000
    48  H          0.53664900       0.23078500       0.62183000
    49  C          0.80852000       0.01689130       0.20821110
    50  C          0.69148000       0.51689130       0.29178890
    51  C          0.19148000       0.98310870       0.79178890
    52  C          0.30852000       0.48310870       0.70821110
    53  H          0.79872600       0.01192600       0.25977500
    54  H          0.70127400       0.51192600       0.24022500
    55  H          0.20127400       0.98807400       0.74022500
    56  H          0.29872600       0.48807400       0.75977500
    57  H          0.89449900       0.98009700       0.20218500
    58  H          0.60550100       0.48009700       0.29781500
    59  H          0.10550100       0.01990300       0.79781500
    60  H          0.39449900       0.51990300       0.70218500
    61  H          0.72059500      -0.00937400       0.17498600
    62  H          0.77940500       0.49062600       0.32501400
    63  H          0.27940500       0.00937400       0.82501400
    64  H          0.22059500       0.50937400       0.67498600
    65  C          0.90206150       0.59804110       0.09855800
    66  C          0.59793850       0.09804110       0.40144200
    67  C          0.09793850       0.40195890       0.90144200
    68  C          0.40206150       0.90195890       0.59855800
    69  C          0.01416170       0.62385120       0.06342900
    70  C          0.48583830       0.12385120       0.43657100
    71  C         -0.01416170       0.37614880       0.93657100
    72  C          0.51416170       0.87614880       0.56342900
    73  H          0.07589000       0.57538900       0.05054000
    74  H          0.42411000       0.07538900       0.44946000
    75  H          0.92411000       0.42461100       0.94946000
    76  H          0.57589000       0.92461100       0.55054000
    77  C          0.03529170       0.71995130       0.04740900
    78  C          0.46470830       0.21995130       0.45259100
    79  C          0.96470830       0.28004870       0.95259100
    80  C          0.53529170       0.78004870       0.54740900
    81  H          0.11262900       0.73661400       0.02417000
    82  H          0.38737100       0.23661400       0.47583000
    83  H          0.88737100       0.26338600       0.97583000
    84  H          0.61262900       0.76338600       0.52417000
    85  C          0.94550170       0.79265120       0.06464900
    86  C          0.55449830       0.29265120       0.43535100
    87  C          0.05449830       0.20734880       0.93535100
    88  C          0.44550170       0.70734880       0.56464900
    89  C          0.83316160       0.76634120       0.09908900
    90  C          0.66683840       0.26634120       0.40091100
    91  C          0.16683840       0.23365880       0.90091100
    92  C          0.33316160       0.73365880       0.59908900
    93  H          0.77039100       0.81472300       0.11113300
    94  H          0.72960900       0.31472300       0.38886700
    95  H          0.22960900       0.18527700       0.88886700
    96  H          0.27039100       0.68527700       0.61113300
    97  C          0.81201160       0.67068120       0.11591800
    98  C          0.68798840       0.17068120       0.38408200
    99  C          0.18798840       0.32931880       0.88408200
   100  C          0.31201160       0.82931880       0.61591800
   101  H          0.73520800       0.65425700       0.13958000
   102  H          0.76479200       0.15425700       0.36042000
   103  H          0.26479200       0.34574300       0.86042000
   104  H          0.23520800       0.84574300       0.63958000
   105  C          0.96732000       0.89547130       0.04427100
   106  C          0.53268000       0.39547130       0.45572900
   107  C          0.03268000       0.10452870       0.95572900
   108  C          0.46732000       0.60452870       0.54427100
   109  H          0.90978100       0.93810800       0.06909900
   110  H          0.59021900       0.43810800       0.43090100
   111  H          0.09021900       0.06189200       0.93090100
   112  H          0.40978100       0.56189200       0.56909900
   113  H          0.93520700       0.90336400       0.99034200
   114  H          0.56479300       0.40336400       0.50965800
   115  H          0.06479300       0.09663600       0.00965800
   116  H          0.43520700       0.59663600       0.49034200
   117  H          0.07130800       0.91225700       0.06003600
   118  H          0.42869200       0.41225700       0.43996400
   119  H          0.92869200       0.08774300       0.93996400
   120  H          0.57130800       0.58774300       0.56003600
   121  C          0.36875160       0.10956110       0.13101800
   122  C          0.13124840       0.60956110       0.36898200
   123  C          0.63124840       0.89043890       0.86898200
   124  C          0.86875160       0.39043890       0.63101800
   125  C          0.38645160       0.02662110       0.11529800
   126  C          0.11354840       0.52662110       0.38470200
   127  C          0.61354840       0.97337890       0.88470200
   128  C          0.88645160       0.47337890       0.61529800
   129  C          0.34943150       0.20797110       0.15082800
   130  C          0.15056850       0.70797110       0.34917200
   131  C          0.65056850       0.79202890       0.84917200
   132  C          0.84943150       0.29202890       0.65082800
   133  C          0.32363160       0.28078120       0.09659800
   134  C          0.17636840       0.78078120       0.40340200
   135  C          0.67636840       0.71921880       0.90340200
   136  C          0.82363160       0.21921880       0.59659800
   137  H          0.32017700       0.26500500       0.04617800
   138  H          0.17982300       0.76500500       0.45382200
   139  H          0.67982300       0.73499500       0.95382200
   140  H          0.82017700       0.23499500       0.54617800
   141  C          0.30326160       0.37520120       0.11613800
   142  C          0.19673840       0.87520120       0.38386200
   143  C          0.69673840       0.62479880       0.88386200
   144  C          0.80326160       0.12479880       0.61613800
   145  H          0.28522500       0.42369400       0.07877300
   146  H          0.21477500       0.92369400       0.42122700
   147  H          0.71477500       0.57630600       0.92122700
   148  H          0.78522500       0.07630600       0.57877300
   149  C          0.30864160       0.40076120       0.18969900
   150  C          0.19135840       0.90076120       0.31030100
   151  C          0.69135840       0.59923880       0.81030100
   152  C          0.80864160       0.09923880       0.68969900
   153  C          0.33648160       0.32865120       0.24341800
   154  C          0.16351840       0.82865120       0.25658200
   155  C          0.66351840       0.67134880       0.75658200
   156  C          0.83648160       0.17134880       0.74341800
   157  H          0.34199500       0.34493900       0.29391300
   158  H          0.15800500       0.84493900       0.20608700
   159  H          0.65800500       0.65506100       0.70608700
   160  H          0.84199500       0.15506100       0.79391300
   161  C          0.35630160       0.23356120       0.22463900
   162  C          0.14369840       0.73356120       0.27536100
   163  C          0.64369840       0.76643880       0.77536100
   164  C          0.85630160       0.26643880       0.72463900
   165  H          0.37471000       0.18534900       0.26220000
   166  H          0.12529000       0.68534900       0.23780000
   167  H          0.62529000       0.81465100       0.73780000
   168  H          0.87471000       0.31465100       0.76220000
   169  C          0.28132000       0.50060140       0.21139110
   170  C          0.21868000       0.00060140       0.28860890
   171  C          0.71868000       0.49939860       0.78860890
   172  C          0.78132000      -0.00060140       0.71139110
   173  H          0.24168700       0.53890400       0.16676800
   174  H          0.25831300       0.03890400       0.33323200
   175  H          0.75831300       0.46109600       0.83323200
   176  H          0.74168700       0.96109600       0.66676800
   177  H          0.37336200       0.52946200       0.23851600
   178  H          0.12663800       0.02946200       0.26148400
   179  H          0.62663800       0.47053800       0.76148400
   180  H          0.87336200       0.97053800       0.73851600
   181  H          0.21069100       0.49971200       0.24327400
   182  H          0.28930900      -0.00028800       0.25672600
   183  H          0.78930900       0.50028800       0.75672600
   184  H          0.71069100       0.00028800       0.74327400
   185  C          0.40453150       0.92739890       0.09682800
   186  C          0.09546850       0.42739890       0.40317200
   187  C          0.59546850       0.07260110       0.90317200
   188  C          0.90453150       0.57260110       0.59682800
   189  C          0.43645160       0.85724880       0.15257800
   190  C          0.06354840       0.35724880       0.34742200
   191  C          0.56354840       0.14275120       0.84742200
   192  C          0.93645160       0.64275120       0.65257800
   193  H          0.45003300       0.87571600       0.20319000
   194  H          0.04996700       0.37571600       0.29681000
   195  H          0.54996700       0.12428400       0.79681000
   196  H          0.95003300       0.62428400       0.70319000
   197  C          0.44840160       0.76054890       0.13425900
   198  C          0.05159840       0.26054890       0.36574100
   199  C          0.55159840       0.23945110       0.86574100
   200  C          0.94840160       0.73945110       0.63425900
   201  H          0.46945200       0.71359900       0.17270600
   202  H          0.03054800       0.21359900       0.32729400
   203  H          0.53054800       0.28640100       0.82729400
   204  H          0.96945200       0.78640100       0.67270600
   205  C          0.43018160       0.73125890       0.06089900
   206  C          0.06981840       0.23125890       0.43910100
   207  C          0.56981840       0.26874110       0.93910100
   208  C          0.93018160       0.76874110       0.56089900
   209  C          0.40147160       0.80209890       0.00551800
   210  C          0.09852840       0.30209890       0.49448200
   211  C          0.59852840       0.19790110      -0.00551800
   212  C          0.90147160       0.69790110       0.50551800
   213  H          0.39072900       0.78366700       0.95503600
   214  H          0.10927100       0.28366700       0.54496400
   215  H          0.60927100       0.21633300       0.04496400
   216  H          0.89072900       0.71633300       0.45503600
   217  C          0.38845160       0.89821890       0.02279800
   218  C          0.11154840       0.39821890       0.47720200
   219  C          0.61154840       0.10178110       0.97720200
   220  C          0.88845160       0.60178110       0.52279800
   221  H          0.36842600       0.94502000       0.98419500
   222  H          0.13157400       0.44502000       0.51580500
   223  H          0.63157400       0.05498000       0.01580500
   224  H          0.86842600       0.55498000       0.48419500
   225  C          0.43840180       0.62618880       0.04017100
   226  C          0.06159820       0.12618880       0.45982900
   227  C          0.56159820       0.37381120       0.95982900
   228  C          0.93840180       0.87381120       0.54017100
   229  H          0.46912600       0.58738400       0.08537400
   230  H          0.03087400       0.08738400       0.41462600
   231  H          0.53087400       0.41261600       0.91462600
   232  H          0.96912600       0.91261600       0.58537400
   233  H          0.50957200       0.61854500       0.00900300
   234  H         -0.00957200       0.11854500       0.49099700
   235  H          0.49042800       0.38145500       0.99099700
   236  H          0.00957200       0.88145500       0.50900300
   237  H          0.34185200       0.60443200       0.01268800
   238  H          0.15814800       0.10443200       0.48731200
   239  H          0.65814800       0.39556800       0.98731200
   240  H          0.84185200       0.89556800       0.51268800
