data_COSXEO
_symmetry_space_group_name_H-M    'P1'
_symmetry_Int_Tables_number       1
loop_
_symmetry_equiv_pos_site_id
_symmetry_equiv_pos_as_xyz
1 x,y,z
_cell_length_a                   5.891401
_cell_length_b                   7.57472
_cell_length_c                   27.14983
_cell_angle_alpha                90.0
_cell_angle_beta                 90.0
_cell_angle_gamma                90.0
loop_
_atom_site_label
_atom_site_type_symbol
_atom_site_fract_x
_atom_site_fract_y
_atom_site_fract_z
     1  C          0.41924000       0.93237000       0.91145400
     2  C          0.08076000       0.06763000       0.41145400
     3  C          0.58076000       0.43237000       0.58854600
     4  C          0.91924000       0.56763000       0.08854600
     5  H          0.44630000       0.03160000       0.88900000
     6  H          0.05370000       0.96840000       0.38900000
     7  H          0.55370000       0.53160000       0.61100000
     8  H          0.94630000       0.46840000       0.11100000
     9  H          0.25570000       0.91880000       0.91680000
    10  H          0.24430000       0.08120000       0.41680000
    11  H          0.74430000       0.41880000       0.58320000
    12  H          0.75570000       0.58120000       0.08320000
    13  H          0.48040000       0.82390000       0.89690000
    14  H          0.01960000       0.17610000       0.39690000
    15  H          0.51960000       0.32390000       0.60310000
    16  H         -0.01960000       0.67610000       0.10310000
    17  C          0.53573000       0.96778000       0.96024400
    18  C          0.96427000       0.03222000       0.46024400
    19  C          0.46427000       0.46778000       0.53975600
    20  C          0.03573000       0.53222000       0.03975600
    21  C          0.74783000       0.04782000       0.96199400
    22  C          0.75217000       0.95218000       0.46199400
    23  C          0.25217000       0.54782000       0.53800600
    24  C          0.24783000       0.45218000       0.03800600
    25  H          0.82060000       0.08010000       0.93210000
    26  H          0.67940000       0.91990000       0.43210000
    27  H          0.17940000       0.58010000       0.56790000
    28  H          0.32060000       0.41990000       0.06790000
    29  C          0.85503000       0.08152000       0.00620600
    30  C          0.64497000       0.91848000       0.50620600
    31  C          0.14497000       0.58152000       0.49379400
    32  C          0.35503000       0.41848000       0.99379400
    33  H         -0.00070000       0.13740000       0.00650000
    34  H          0.50070000       0.86260000       0.50650000
    35  H          0.00070000       0.63740000       0.49350000
    36  H          0.49930000       0.36260000       0.99350000
    37  C          0.43423000       0.92018000       0.00434600
    38  C          0.06577000       0.07982000       0.50434600
    39  C          0.56577000       0.42018000       0.49565400
    40  C          0.93423000       0.57982000      -0.00434600
    41  H          0.29020000       0.86380000       0.00390000
    42  H          0.20980000       0.13620000       0.50390000
    43  H          0.70980000       0.36380000       0.49610000
    44  H          0.79020000       0.63620000      -0.00390000
    45  C          0.53903000       0.95358000       0.04901600
    46  C          0.96097000       0.04642000       0.54901600
    47  C          0.46097000       0.45358000       0.45098400
    48  C          0.03903000       0.54642000       0.95098400
    49  H          0.46540000       0.92150000       0.07880000
    50  H          0.03460000       0.07850000       0.57880000
    51  H          0.53460000       0.42150000       0.42120000
    52  H          0.96540000       0.57850000       0.92120000
    53  C          0.75173000       0.03382000       0.05048600
    54  C          0.74827000       0.96618000       0.55048600
    55  C          0.24827000       0.53382000       0.44951400
    56  C          0.25173000       0.46618000       0.94951400
    57  C          0.86733000       0.06412000       0.09657600
    58  C          0.63267000       0.93588000       0.59657600
    59  C          0.13267000       0.56412000       0.40342400
    60  C          0.36733000       0.43588000       0.90342400
    61  C          0.97133000       0.08722000       0.13392600
    62  C          0.52867000       0.91278000       0.63392600
    63  C          0.02867000       0.58722000       0.36607400
    64  C          0.47133000       0.41278000       0.86607400
    65  C          0.10103000       0.11662190       0.17802600
    66  C          0.39897000       0.88337810       0.67802600
    67  C          0.89897000       0.61662190       0.32197400
    68  C          0.60103000       0.38337810       0.82197400
    69  C          0.31583000       0.19622000       0.17525600
    70  C          0.18417000       0.80378000       0.67525600
    71  C          0.68417000       0.69622000       0.32474400
    72  C          0.81583000       0.30378000       0.82474400
    73  H          0.37510000       0.23020000       0.14410000
    74  H          0.12490000       0.76980000       0.64410000
    75  H          0.62490000       0.73020000       0.35590000
    76  H          0.87510000       0.26980000       0.85590000
    77  C          0.44163000       0.22532000       0.21733600
    78  C          0.05837000       0.77468000       0.71733600
    79  C          0.55837000       0.72532000       0.28266400
    80  C          0.94163000       0.27468000       0.78266400
    81  H          0.58610000       0.28010000       0.21470000
    82  H          0.91390000       0.71990000       0.71470000
    83  H          0.41390000       0.78010000       0.28530000
    84  H          0.08610000       0.21990000       0.78530000
    85  C          0.02023000       0.06632000       0.22419600
    86  C          0.47977000       0.93368000       0.72419600
    87  C         -0.02023000       0.56632000       0.27580400
    88  C          0.52023000       0.43368000       0.77580400
    89  H          0.87610000       0.01100000       0.22700000
    90  H          0.62390000      -0.01100000       0.72700000
    91  H          0.12390000       0.51100000       0.27300000
    92  H          0.37610000       0.48900000       0.77300000
    93  C          0.14903000       0.09662000       0.26604600
    94  C          0.35097000       0.90338000       0.76604600
    95  C          0.85097000       0.59662000       0.23395400
    96  C          0.64903000       0.40338000       0.73395400
    97  H          0.09090000       0.06220000       0.29720000
    98  H          0.40910000       0.93780000       0.79720000
    99  H          0.90910000       0.56220000       0.20280000
   100  H          0.59090000       0.43780000       0.70280000
   101  C          0.36133000       0.17612000       0.26345600
   102  C          0.13867000       0.82388000       0.76345600
   103  C          0.63867000       0.67612000       0.23654400
   104  C          0.86133000       0.32388000       0.73654400
   105  C          0.49893000       0.21033000       0.30935600
   106  C          0.00107000       0.78967000       0.80935600
   107  C          0.50107000       0.71033000       0.19064400
   108  C         -0.00107000       0.28967000       0.69064400
   109  H          0.41730000       0.29350000       0.33060000
   110  H          0.08270000       0.70650000       0.83060000
   111  H          0.58270000       0.79350000       0.16940000
   112  H          0.91730000       0.20650000       0.66940000
   113  H          0.64620000       0.26070000       0.30020000
   114  H          0.85380000       0.73930000       0.80020000
   115  H          0.35380000       0.76070000       0.19980000
   116  H          0.14620000       0.23930000       0.69980000
   117  H          0.52250000       0.09910000       0.32710000
   118  H         -0.02250000       0.90090000       0.82710000
   119  H          0.47750000       0.59910000       0.17290000
   120  H          0.02250000       0.40090000       0.67290000
