data_CTMTNA02
_symmetry_space_group_name_H-M    'P1'
_symmetry_Int_Tables_number       1
loop_
_symmetry_equiv_pos_site_id
_symmetry_equiv_pos_as_xyz
1 x,y,z
_cell_length_a                   12.565019
_cell_length_b                   9.47696
_cell_length_c                   10.92979
_cell_angle_alpha                90.0
_cell_angle_beta                 90.0
_cell_angle_gamma                90.0
loop_
_atom_site_label
_atom_site_type_symbol
_atom_site_fract_x
_atom_site_fract_y
_atom_site_fract_z
     1  C          0.12321100       0.07921100       0.78751100
     2  C          0.37678900       0.07921100       0.28751100
     3  C          0.62321100       0.92078900       0.78751100
     4  C          0.87678900       0.92078900       0.28751100
     5  C          0.05391100       0.87731100       0.89641100
     6  C          0.44608900       0.87731100       0.39641100
     7  C          0.55391100       0.12268900       0.89641100
     8  C          0.94608900       0.12268900       0.39641100
     9  C          0.21561000       0.85411000       0.77291200
    10  C          0.28439000       0.85411000       0.27291200
    11  C          0.71561000       0.14589000       0.77291200
    12  C          0.78439000       0.14589000       0.27291200
    13  N          0.18459000       0.98439000       0.71419000
    14  N          0.31541000       0.98439000       0.21419000
    15  N          0.68459000       0.01561000       0.71419000
    16  N          0.81541000       0.01561000       0.21419000
    17  N          0.02891000       0.00801000       0.83528000
    18  N          0.47109000       0.00801000       0.33528000
    19  N          0.52891000      -0.00801000       0.83528000
    20  N          0.97109000      -0.00801000       0.33528000
    21  N          0.12099000       0.78729000       0.82348000
    22  N          0.37901000       0.78729000       0.32348000
    23  N          0.62099000       0.21271000       0.82348000
    24  N          0.87901000       0.21271000       0.32348000
    25  N          0.19551100       0.00521100       0.59429000
    26  N          0.30448900       0.00521100       0.09429000
    27  N          0.69551100      -0.00521100       0.59429000
    28  N          0.80448900      -0.00521100       0.09429000
    29  N          0.94092000       0.00809000       0.76088000
    30  N          0.55908000       0.00809000       0.26088000
    31  N          0.44092000      -0.00809000       0.76088000
    32  N          0.05908000      -0.00809000       0.26088000
    33  N          0.07279000       0.69499000       0.74409000
    34  N          0.42721000       0.69499000       0.24409000
    35  N          0.57279000       0.30501000       0.74409000
    36  N          0.92721000       0.30501000       0.24409000
    37  O          0.15631000       0.11149000       0.55011000
    38  O          0.34369000       0.11149000       0.05011000
    39  O          0.65631000       0.88851000       0.55011000
    40  O          0.84369000       0.88851000       0.05011000
    41  O          0.24651000       0.91849000       0.53881000
    42  O          0.25349000       0.91849000       0.03881000
    43  O          0.74651000       0.08151000       0.53881000
    44  O          0.75349000       0.08151000       0.03881000
    45  O          0.93341000       0.10388000       0.68668000
    46  O          0.56659000       0.10388000       0.18668000
    47  O          0.43341000       0.89612000       0.68668000
    48  O          0.06659000       0.89612000       0.18668000
    49  O          0.87242000       0.92358000       0.78228000
    50  O          0.62758000       0.92358000       0.28228000
    51  O          0.37242000       0.07642000       0.78228000
    52  O          0.12758000       0.07642000       0.28228000
    53  O          0.98072000       0.66598000       0.76688000
    54  O          0.51928000       0.66598000       0.26688000
    55  O          0.48072000       0.33402000       0.76688000
    56  O          0.01928000       0.33402000       0.26688000
    57  O          0.12398000       0.64487000       0.66218000
    58  O          0.37602000       0.64487000       0.16218000
    59  O          0.62398000       0.35513000       0.66218000
    60  O          0.87602000       0.35513000       0.16218000
    61  H          0.16710000       0.10950000       0.85600000
    62  H          0.33290000       0.10950000       0.35600000
    63  H          0.66710000       0.89050000       0.85600000
    64  H          0.83290000       0.89050000       0.35600000
    65  H          0.10290000       0.16090000       0.73980000
    66  H          0.39710000       0.16090000       0.23980000
    67  H          0.60290000       0.83910000       0.73980000
    68  H          0.89710000       0.83910000       0.23980000
    69  H          0.08980000       0.89790000       0.97310000
    70  H          0.41020000       0.89790000       0.47310000
    71  H          0.58980000       0.10210000       0.97310000
    72  H          0.91020000       0.10210000       0.47310000
    73  H          0.98840000       0.82980000       0.91260000
    74  H          0.51160000       0.82980000       0.41260000
    75  H          0.48840000       0.17020000       0.91260000
    76  H          0.01160000       0.17020000       0.41260000
    77  H          0.26690000       0.87160000       0.83830000
    78  H          0.23310000       0.87160000       0.33830000
    79  H          0.76690000       0.12840000       0.83830000
    80  H          0.73310000       0.12840000       0.33830000
    81  H          0.24730000       0.79110000       0.71350000
    82  H          0.25270000       0.79110000       0.21350000
    83  H          0.74730000       0.20890000       0.71350000
    84  H          0.75270000       0.20890000       0.21350000
    85  C          0.65741200       0.42121100       0.06381200
    86  C          0.84258800       0.42121100       0.56381200
    87  C          0.15741200       0.57878900       0.06381200
    88  C          0.34258800       0.57878900       0.56381200
    89  C          0.55191000       0.54611000       0.91158900
    90  C          0.94809000       0.54611000       0.41158900
    91  C          0.05191000       0.45389000       0.91158900
    92  C          0.44809000       0.45389000       0.41158900
    93  C          0.66331000       0.68551000       0.05221200
    94  C          0.83669000       0.68551000       0.55221200
    95  C          0.16331000       0.31449000       0.05221200
    96  C          0.33669000       0.31449000       0.55221200
    97  N          0.67708000       0.55559000       0.12298000
    98  N          0.82292000       0.55559000       0.62298000
    99  N          0.17708000       0.44441000       0.12298000
   100  N          0.32292000       0.44441000       0.62298000
   101  N          0.55868000       0.42748000      -0.00428000
   102  N          0.94132000       0.42748000       0.49572000
   103  N          0.05868000       0.57252000      -0.00428000
   104  N          0.44132000       0.57252000       0.49572000
   105  N          0.57268000       0.67749000       0.97642000
   106  N          0.92732000       0.67749000       0.47642000
   107  N          0.07268000       0.32251000       0.97642000
   108  N          0.42732000       0.32251000       0.47642000
   109  N          0.71149000       0.56198000       0.23858000
   110  N          0.78851000       0.56198000       0.73858000
   111  N          0.21149000       0.43802000       0.23858000
   112  N          0.28851000       0.43802000       0.73858000
   113  N          0.46528000       0.40528000       0.06407000
   114  N          0.03472000       0.40528000       0.56407000
   115  N          0.96528000       0.59472000       0.06407000
   116  N          0.53472000       0.59472000       0.56407000
   117  N          0.49258000       0.76708000      -0.00827000
   118  N          0.00742000       0.76708000       0.49173000
   119  N         -0.00742000       0.23292000      -0.00827000
   120  N          0.50742000       0.23292000       0.49173000
   121  O          0.74278000       0.67557000       0.27758000
   122  O          0.75722000       0.67557000       0.77758000
   123  O          0.24278000       0.32443000       0.27758000
   124  O          0.25722000       0.32443000       0.77758000
   125  O          0.70888000       0.45217000       0.29818000
   126  O          0.79112000       0.45217000       0.79818000
   127  O          0.20888000       0.54783000       0.29818000
   128  O          0.29112000       0.54783000       0.79818000
   129  O          0.38309000       0.42018000       0.00868000
   130  O          0.11691000       0.42018000       0.50868000
   131  O          0.88309000       0.57982000       0.00868000
   132  O          0.61691000       0.57982000       0.50868000
   133  O          0.47418000       0.36168000       0.16738000
   134  O          0.02582000       0.36168000       0.66738000
   135  O          0.97418000       0.63832000       0.16738000
   136  O          0.52582000       0.63832000       0.66738000
   137  O          0.41178000       0.75198000       0.92682000
   138  O          0.08822000       0.75198000       0.42682000
   139  O          0.91178000       0.24802000       0.92682000
   140  O          0.58822000       0.24802000       0.42682000
   141  O          0.50227000       0.86697000       0.06308000
   142  O         -0.00227000       0.86697000       0.56308000
   143  O          0.00227000       0.13303000       0.06308000
   144  O          0.49773000       0.13303000       0.56308000
   145  H          0.71560000       0.39980000       0.00840000
   146  H          0.78440000       0.39980000       0.50840000
   147  H          0.21560000       0.60020000       0.00840000
   148  H          0.28440000       0.60020000       0.50840000
   149  H          0.65260000       0.34840000       0.12540000
   150  H          0.84740000       0.34840000       0.62540000
   151  H          0.15260000       0.65160000       0.12540000
   152  H          0.34740000       0.65160000       0.62540000
   153  H          0.60440000       0.53420000       0.84740000
   154  H          0.89560000       0.53420000       0.34740000
   155  H          0.10440000       0.46580000       0.84740000
   156  H          0.39560000       0.46580000       0.34740000
   157  H          0.48060000       0.54810000       0.87790000
   158  H          0.01940000       0.54810000       0.37790000
   159  H          0.98060000       0.45190000       0.87790000
   160  H          0.51940000       0.45190000       0.37790000
   161  H          0.72590000       0.69860000       0.00110000
   162  H          0.77410000       0.69860000       0.50110000
   163  H          0.22590000       0.30140000       0.00110000
   164  H          0.27410000       0.30140000       0.50110000
   165  H          0.65520000       0.76620000       0.10740000
   166  H          0.84480000       0.76620000       0.60740000
   167  H          0.15520000       0.23380000       0.10740000
   168  H          0.34480000       0.23380000       0.60740000
