data_CTMTNA
_symmetry_space_group_name_H-M    'P1'
_symmetry_Int_Tables_number       1
loop_
_symmetry_equiv_pos_site_id
_symmetry_equiv_pos_as_xyz
1 x,y,z
_cell_length_a                   13.1822
_cell_length_b                   11.5742
_cell_length_c                   10.7092
_cell_angle_alpha                90.0
_cell_angle_beta                 90.0
_cell_angle_gamma                90.0
loop_
_atom_site_label
_atom_site_type_symbol
_atom_site_fract_x
_atom_site_fract_y
_atom_site_fract_z
     1  C          0.18390000       0.35780000       0.44000000
     2  C          0.31610000       0.64220000       0.94000000
     3  C          0.68390000       0.14220000       0.56000000
     4  C          0.81610000       0.85780000       0.06000000
     5  C          0.81610000       0.64220000       0.56000000
     6  C          0.68390000       0.35780000       0.06000000
     7  C          0.31610000       0.85780000       0.44000000
     8  C          0.18390000       0.14220000       0.94000000
     9  C          0.05030000       0.24400000       0.33950000
    10  C          0.44970000       0.75600000       0.83950000
    11  C          0.55030000       0.25600000       0.66050000
    12  C          0.94970000       0.74400000       0.16050000
    13  C          0.94970000       0.75600000       0.66050000
    14  C          0.55030000       0.24400000       0.16050000
    15  C          0.44970000       0.74400000       0.33950000
    16  C          0.05030000       0.25600000       0.83950000
    17  C          0.14870000       0.38130000       0.21590000
    18  C          0.35130000       0.61870000       0.71590000
    19  C          0.64870000       0.11870000       0.78410000
    20  C          0.85130000       0.88130000       0.28410000
    21  C          0.85130000       0.61870000       0.78410000
    22  C          0.64870000       0.38130000       0.28410000
    23  C          0.35130000       0.88130000       0.21590000
    24  C          0.14870000       0.11870000       0.71590000
    25  H          0.24010000       0.29440000       0.42260000
    26  H          0.25990000       0.70560000       0.92260000
    27  H          0.74010000       0.20560000       0.57740000
    28  H          0.75990000       0.79440000       0.07740000
    29  H          0.75990000       0.70560000       0.57740000
    30  H          0.74010000       0.29440000       0.07740000
    31  H          0.25990000       0.79440000       0.42260000
    32  H          0.24010000       0.20560000       0.92260000
    33  H          0.20130000       0.40680000       0.52440000
    34  H          0.29870000       0.59320000       0.02440000
    35  H          0.70130000       0.09320000       0.47560000
    36  H          0.79870000       0.90680000       0.97560000
    37  H          0.79870000       0.59320000       0.47560000
    38  H          0.70130000       0.40680000       0.97560000
    39  H          0.29870000       0.90680000       0.52440000
    40  H          0.20130000       0.09320000       0.02440000
    41  H          0.97390000       0.21170000       0.35400000
    42  H          0.52610000       0.78830000       0.85400000
    43  H          0.47390000       0.28830000       0.64600000
    44  H          0.02610000       0.71170000       0.14600000
    45  H          0.02610000       0.78830000       0.64600000
    46  H          0.47390000       0.21170000       0.14600000
    47  H          0.52610000       0.71170000       0.35400000
    48  H          0.97390000       0.28830000       0.85400000
    49  H          0.10150000       0.17280000       0.31920000
    50  H          0.39850000       0.82720000       0.81920000
    51  H          0.60150000       0.32720000       0.68080000
    52  H          0.89850000       0.67280000       0.18080000
    53  H          0.89850000       0.82720000       0.68080000
    54  H          0.60150000       0.17280000       0.18080000
    55  H          0.39850000       0.67280000       0.31920000
    56  H          0.10150000       0.32720000       0.81920000
    57  H          0.20520000       0.31660000       0.19170000
    58  H          0.29480000       0.68340000       0.69170000
    59  H          0.70520000       0.18340000       0.80830000
    60  H          0.79480000       0.81660000       0.30830000
    61  H          0.79480000       0.68340000       0.80830000
    62  H          0.70520000       0.31660000       0.30830000
    63  H          0.29480000       0.81660000       0.19170000
    64  H          0.20520000       0.18340000       0.69170000
    65  H          0.14400000       0.44320000       0.14130000
    66  H          0.35600000       0.55680000       0.64130000
    67  H          0.64400000       0.05680000       0.85870000
    68  H          0.85600000       0.94320000       0.35870000
    69  H          0.85600000       0.55680000       0.85870000
    70  H          0.64400000       0.44320000       0.35870000
    71  H          0.35600000       0.94320000       0.14130000
    72  H          0.14400000       0.05680000       0.64130000
    73  N          0.17610000       0.43600000       0.33300000
    74  N          0.32390000       0.56400000       0.83300000
    75  N          0.67610000       0.06400000       0.66700000
    76  N          0.82390000       0.93600000       0.16700000
    77  N          0.82390000       0.56400000       0.66700000
    78  N          0.67610000       0.43600000       0.16700000
    79  N          0.32390000       0.93600000       0.33300000
    80  N          0.17610000       0.06400000       0.83300000
    81  N          0.08770000       0.29960000       0.45370000
    82  N          0.41230000       0.70040000       0.95370000
    83  N          0.58770000       0.20040000       0.54630000
    84  N          0.91230000       0.79960000       0.04630000
    85  N          0.91230000       0.70040000       0.54630000
    86  N          0.58770000       0.29960000       0.04630000
    87  N          0.41230000       0.79960000       0.45370000
    88  N          0.08770000       0.20040000       0.95370000
    89  N          0.05360000       0.32220000       0.23290000
    90  N          0.44640000       0.67780000       0.73290000
    91  N          0.55360000       0.17780000       0.76710000
    92  N          0.94640000       0.82220000       0.26710000
    93  N          0.94640000       0.67780000       0.76710000
    94  N          0.55360000       0.32220000       0.26710000
    95  N          0.44640000       0.82220000       0.23290000
    96  N          0.05360000       0.17780000       0.73290000
    97  N          0.22600000       0.53790000       0.33460000
    98  N          0.27400000       0.46210000       0.83460000
    99  N          0.72600000       0.96210000       0.66540000
   100  N          0.77400000       0.03790000       0.16540000
   101  N          0.77400000       0.46210000       0.66540000
   102  N          0.72600000       0.53790000       0.16540000
   103  N          0.27400000       0.03790000       0.33460000
   104  N          0.22600000       0.96210000       0.83460000
   105  N          0.01550000       0.35250000       0.52940000
   106  N          0.48450000       0.64750000       0.02940000
   107  N          0.51550000       0.14750000       0.47060000
   108  N          0.98450000       0.85250000       0.97060000
   109  N          0.98450000       0.64750000       0.47060000
   110  N          0.51550000       0.35250000       0.97060000
   111  N          0.48450000       0.85250000       0.52940000
   112  N          0.01550000       0.14750000       0.02940000
   113  N          0.96670000       0.38750000       0.20780000
   114  N          0.53330000       0.61250000       0.70780000
   115  N          0.46670000       0.11250000       0.79220000
   116  N          0.03330000       0.88750000       0.29220000
   117  N          0.03330000       0.61250000       0.79220000
   118  N          0.46670000       0.38750000       0.29220000
   119  N          0.53330000       0.88750000       0.20780000
   120  N          0.96670000       0.11250000       0.70780000
   121  O          0.22700000       0.59320000       0.23880000
   122  O          0.27300000       0.40680000       0.73880000
   123  O          0.72700000       0.90680000       0.76120000
   124  O          0.77300000       0.09320000       0.26120000
   125  O          0.77300000       0.40680000       0.76120000
   126  O          0.72700000       0.59320000       0.26120000
   127  O          0.27300000       0.09320000       0.23880000
   128  O          0.22700000       0.90680000       0.73880000
   129  O          0.26490000       0.56870000       0.43380000
   130  O          0.23510000       0.43130000       0.93380000
   131  O          0.76490000       0.93130000       0.56620000
   132  O          0.73510000       0.06870000       0.06620000
   133  O          0.73510000       0.43130000       0.56620000
   134  O          0.76490000       0.56870000       0.06620000
   135  O          0.23510000       0.06870000       0.43380000
   136  O          0.26490000       0.93130000       0.93380000
   137  O          0.93070000       0.31420000       0.52620000
   138  O          0.56930000       0.68580000       0.02620000
   139  O          0.43070000       0.18580000       0.47380000
   140  O          0.06930000       0.81420000       0.97380000
   141  O          0.06930000       0.68580000       0.47380000
   142  O          0.43070000       0.31420000       0.97380000
   143  O          0.56930000       0.81420000       0.52620000
   144  O          0.93070000       0.18580000       0.02620000
   145  O          0.04540000       0.42710000       0.59900000
   146  O          0.45460000       0.57290000       0.09900000
   147  O          0.54540000       0.07290000       0.40100000
   148  O          0.95460000       0.92710000       0.90100000
   149  O          0.95460000       0.57290000       0.40100000
   150  O          0.54540000       0.42710000       0.90100000
   151  O          0.45460000       0.92710000       0.59900000
   152  O          0.04540000       0.07290000       0.09900000
   153  O          0.88790000       0.35340000       0.25040000
   154  O          0.61210000       0.64660000       0.75040000
   155  O          0.38790000       0.14660000       0.74960000
   156  O          0.11210000       0.85340000       0.24960000
   157  O          0.11210000       0.64660000       0.74960000
   158  O          0.38790000       0.35340000       0.24960000
   159  O          0.61210000       0.85340000       0.25040000
   160  O          0.88790000       0.14660000       0.75040000
   161  O          0.97640000       0.46910000       0.13900000
   162  O          0.52360000       0.53090000       0.63900000
   163  O          0.47640000       0.03090000       0.86100000
   164  O          0.02360000       0.96910000       0.36100000
   165  O          0.02360000       0.53090000       0.86100000
   166  O          0.47640000       0.46910000       0.36100000
   167  O          0.52360000       0.96910000       0.13900000
   168  O          0.97640000       0.03090000       0.63900000
