data_CTMTNA04
_symmetry_space_group_name_H-M    'P1'
_symmetry_Int_Tables_number       1
loop_
_symmetry_equiv_pos_site_id
_symmetry_equiv_pos_as_xyz
1 x,y,z
_cell_length_a                   15.126711
_cell_length_b                   7.45636
_cell_length_c                   14.371911
_cell_angle_alpha                90.0
_cell_angle_beta                 90.0
_cell_angle_gamma                90.0
loop_
_atom_site_label
_atom_site_type_symbol
_atom_site_fract_x
_atom_site_fract_y
_atom_site_fract_z
     1  C          0.49042000       0.66766000       0.45043000
     2  C          0.00958000       0.66766000       0.95043000
     3  C          0.99042000       0.33234000       0.45043000
     4  C          0.50958000       0.33234000       0.95043000
     5  N          0.54412000       0.70574000       0.53152000
     6  N          0.95588000       0.70574000       0.03152000
     7  N          0.04412000       0.29426000       0.53152000
     8  N          0.45588000       0.29426000       0.03152000
     9  N          0.50732000       0.83035000       0.59423000
    10  N         -0.00732000       0.83035000       0.09423000
    11  N          0.00732000       0.16965000       0.59423000
    12  N          0.49268000       0.16965000       0.09423000
    13  O          0.44762000       0.92575000       0.56653000
    14  O          0.05238000       0.92575000       0.06653000
    15  O          0.94762000       0.07425000       0.56653000
    16  O          0.55238000       0.07425000       0.06653000
    17  O          0.54002000       0.83956000       0.67033000
    18  O          0.95998000       0.83956000       0.17033000
    19  O          0.04002000       0.16044000       0.67033000
    20  O          0.45998000       0.16044000       0.17033000
    21  C          0.58212000       0.54717000       0.57423000
    22  C          0.91788000       0.54717000       0.07423000
    23  C          0.08212000       0.45283000       0.57423000
    24  C          0.41788000       0.45283000       0.07423000
    25  N          0.51583000       0.41085000       0.59273000
    26  N          0.98417000       0.41085000       0.09273000
    27  N          0.01583000       0.58915000       0.59273000
    28  N          0.48417000       0.58915000       0.09273000
    29  O          0.51564000       0.49538000       0.74253000
    30  O          0.98436000       0.49538000       0.24253000
    31  O          0.01564000       0.50462000       0.74253000
    32  O          0.48436000       0.50462000       0.24253000
    33  O          0.41113000       0.32146000       0.68974000
    34  O          0.08887000       0.32146000       0.18974000
    35  O          0.91113000       0.67854000       0.68974000
    36  O          0.58887000       0.67854000       0.18974000
    37  N          0.47623000       0.41077000       0.68064000
    38  N          0.02377000       0.41077000       0.18064000
    39  N          0.97623000       0.58923000       0.68064000
    40  N          0.52377000       0.58923000       0.18064000
    41  C          0.45983000       0.36936000       0.51414000
    42  C          0.04017000       0.36936000       0.01414000
    43  C          0.95983000       0.63064000       0.51414000
    44  C          0.54017000       0.63064000       0.01414000
    45  N          0.42562000       0.53115000       0.46893000
    46  N          0.07438000       0.53115000       0.96893000
    47  N          0.92562000       0.46885000       0.46893000
    48  N          0.57438000       0.46885000       0.96893000
    49  N          0.33992000       0.58636000       0.48963000
    50  N          0.16008000       0.58636000       0.98963000
    51  N          0.83992000       0.41364000       0.48963000
    52  N          0.66008000       0.41364000       0.98963000
    53  O          0.31628190       0.73055000       0.45993000
    54  O          0.18371810       0.73055000       0.95993000
    55  O          0.81628190       0.26945000       0.45993000
    56  O          0.68371810       0.26945000       0.95993000
    57  O          0.29452000       0.48386000       0.53314000
    58  O          0.20548000       0.48386000       0.03314000
    59  O          0.79452000       0.51614000       0.53314000
    60  O          0.70548000       0.51614000       0.03314000
    61  H          0.46150000       0.77290000       0.42800000
    62  H          0.03850000       0.77290000       0.92800000
    63  H          0.96150000       0.22710000       0.42800000
    64  H          0.53850000       0.22710000       0.92800000
    65  H          0.52880000       0.61750000       0.40350000
    66  H          0.97120000       0.61750000       0.90350000
    67  H          0.02880000       0.38250000       0.40350000
    68  H          0.47120000       0.38250000       0.90350000
    69  H          0.61460000       0.58330000       0.63000000
    70  H          0.88540000       0.58330000       0.13000000
    71  H          0.11460000       0.41670000       0.63000000
    72  H          0.38540000       0.41670000       0.13000000
    73  H          0.62450000       0.49770000       0.53030000
    74  H          0.87550000       0.49770000       0.03030000
    75  H          0.12450000       0.50230000       0.53030000
    76  H          0.37550000       0.50230000       0.03030000
    77  H          0.49620000       0.30630000       0.46990000
    78  H          0.00380000       0.30630000       0.96990000
    79  H         -0.00380000       0.69370000       0.46990000
    80  H          0.50380000       0.69370000       0.96990000
    81  H          0.40770000       0.29770000       0.53900000
    82  H          0.09230000       0.29770000       0.03900000
    83  H          0.90770000       0.70230000       0.53900000
    84  H          0.59230000       0.70230000       0.03900000
    85  C          0.74153000       0.08965000       0.20593000
    86  C          0.75847000       0.08965000       0.70593000
    87  C          0.24153000       0.91035000       0.20593000
    88  C          0.25847000       0.91035000       0.70593000
    89  N          0.78958190       0.96406000       0.26492000
    90  N          0.71041810       0.96406000       0.76492000
    91  N          0.28958190       0.03594000       0.26492000
    92  N          0.21041810       0.03594000       0.76492000
    93  N          0.87072000       0.02065000       0.30253000
    94  N          0.62928000       0.02065000       0.80253000
    95  N          0.37072000       0.97935000       0.30253000
    96  N          0.12928000       0.97935000       0.80253000
    97  O          0.90502000       0.15244000       0.26732000
    98  O          0.59498000       0.15244000       0.76732000
    99  O          0.40502000       0.84756000       0.26732000
   100  O          0.09498000       0.84756000       0.76732000
   101  O          0.90190170       0.92736000       0.36362000
   102  O          0.59809830       0.92736000       0.86362000
   103  O          0.40190170       0.07264000       0.36362000
   104  O          0.09809830       0.07264000       0.86362000
   105  C          0.73532000       0.84365000       0.32063000
   106  C          0.76468000       0.84365000       0.82063000
   107  C          0.23532000       0.15635000       0.32063000
   108  C          0.26468000       0.15635000       0.82063000
   109  N          0.66602000       0.93996000       0.36942000
   110  N          0.83398000       0.93996000       0.86942000
   111  N          0.16602000       0.06004000       0.36942000
   112  N          0.33398000       0.06004000       0.86942000
   113  N          0.68002000      -0.01415000       0.46282000
   114  N          0.81998000      -0.01415000       0.96282000
   115  N          0.18002000       0.01415000       0.46282000
   116  N          0.31998000       0.01415000       0.96282000
   117  O          0.73842000       0.90336000       0.50322000
   118  O          0.76158000       0.90336000       0.00322000
   119  O          0.23842000       0.09664000       0.50322000
   120  O          0.26158000       0.09664000       0.00322000
   121  O          0.62981180       0.09374000       0.49832000
   122  O          0.87018820       0.09374000      -0.00168000
   123  O          0.12981180       0.90626000       0.49832000
   124  O          0.37018820       0.90626000      -0.00168000
   125  C          0.61582000       0.06806000       0.31183000
   126  C          0.88418000       0.06806000       0.81183000
   127  C          0.11582000       0.93194000       0.31183000
   128  C          0.38418000       0.93194000       0.81183000
   129  N          0.67322000       0.18524000       0.25802000
   130  N          0.82678000       0.18524000       0.75802000
   131  N          0.17322000       0.81476000       0.25802000
   132  N          0.32678000       0.81476000       0.75802000
   133  N          0.69702000       0.34865000       0.29822000
   134  N          0.80298000       0.34865000       0.79822000
   135  N          0.19702000       0.65135000       0.29822000
   136  N          0.30298000       0.65135000       0.79822000
   137  O          0.64962000       0.40434000       0.36032000
   138  O          0.85038000       0.40434000       0.86032000
   139  O          0.14962000       0.59566000       0.36032000
   140  O          0.35038000       0.59566000       0.86032000
   141  O          0.75912000       0.42774000       0.26453000
   142  O          0.74088000       0.42774000       0.76453000
   143  O          0.25912000       0.57226000       0.26453000
   144  O          0.24088000       0.57226000       0.76453000
   145  H          0.78140000       0.17590000       0.17660000
   146  H          0.71860000       0.17590000       0.67660000
   147  H          0.28140000       0.82410000       0.17660000
   148  H          0.21860000       0.82410000       0.67660000
   149  H          0.71030000       0.01860000       0.15860000
   150  H          0.78970000       0.01860000       0.65860000
   151  H          0.21030000      -0.01860000       0.15860000
   152  H          0.28970000      -0.01860000       0.65860000
   153  H          0.77270000       0.78180000       0.36590000
   154  H          0.72730000       0.78180000       0.86590000
   155  H          0.27270000       0.21820000       0.36590000
   156  H          0.22730000       0.21820000       0.86590000
   157  H          0.70660000       0.75840000       0.27620000
   158  H          0.79340000       0.75840000       0.77620000
   159  H          0.20660000       0.24160000       0.27620000
   160  H          0.29340000       0.24160000       0.77620000
   161  H          0.57870000       0.13960000       0.35110000
   162  H          0.92130000       0.13960000       0.85110000
   163  H          0.07870000       0.86040000       0.35110000
   164  H          0.42130000       0.86040000       0.85110000
   165  H          0.58130000      -0.00040000       0.26770000
   166  H          0.91870000      -0.00040000       0.76770000
   167  H          0.08130000       0.00040000       0.26770000
   168  H          0.41870000       0.00040000       0.76770000
