data_CTMTNA06
_symmetry_space_group_name_H-M    'P1'
_symmetry_Int_Tables_number       1
loop_
_symmetry_equiv_pos_site_id
_symmetry_equiv_pos_as_xyz
1 x,y,z
_cell_length_a                   7.032411
_cell_length_b                   10.5303
_cell_length_c                   8.790911
_cell_angle_alpha                90.0
_cell_angle_beta                 90.0
_cell_angle_gamma                90.0
loop_
_atom_site_label
_atom_site_type_symbol
_atom_site_fract_x
_atom_site_fract_y
_atom_site_fract_z
     1  N          0.92048900       0.84841400       0.53691000
     2  N          0.57951100       0.84841400       0.03691000
     3  N          0.42048900       0.15158600       0.53691000
     4  N          0.07951100       0.15158600       0.03691000
     5  N          0.97571000       0.61941300       0.53131000
     6  N          0.52429000       0.61941300       0.03131000
     7  N          0.47571000       0.38058700       0.53131000
     8  N          0.02429000       0.38058700       0.03131000
     9  N          0.21111000       0.75871200       0.64081000
    10  N          0.28889000       0.75871200       0.14081000
    11  N          0.71111000       0.24128800       0.64081000
    12  N          0.78889000       0.24128800       0.14081000
    13  N          0.95831000       0.88351400       0.38999000
    14  N          0.54169000       0.88351400       0.88999000
    15  N          0.45831000       0.11648600       0.38999000
    16  N          0.04169000       0.11648600       0.88999000
    17  N          0.03141100       0.58351100       0.38849000
    18  N          0.46858900       0.58351100       0.88849000
    19  N          0.53141100       0.41648900       0.38849000
    20  N          0.96858900       0.41648900       0.88849000
    21  N          0.36331100       0.77481100       0.54141200
    22  N          0.13668900       0.77481100       0.04141200
    23  N          0.86331100       0.22518900       0.54141200
    24  N          0.63668900       0.22518900       0.04141200
    25  C          0.83708700       0.72171200       0.54471400
    26  C          0.66291300       0.72171200       0.04471400
    27  C          0.33708700       0.27828800       0.54471400
    28  C          0.16291300       0.27828800       0.04471400
    29  C          0.12871200       0.63131200       0.64321100
    30  C          0.37128800       0.63131200       0.14321100
    31  C          0.62871200       0.36868800       0.64321100
    32  C          0.87128800       0.36868800       0.14321100
    33  C          0.07321200       0.86211400       0.64881100
    34  C          0.42678800       0.86211400       0.14881100
    35  C          0.57321200       0.13788600       0.64881100
    36  C          0.92678800       0.13788600       0.14881100
    37  O          0.10979000       0.93251200       0.36488000
    38  O          0.39021000       0.93251200       0.86488000
    39  O          0.60979000       0.06748800       0.36488000
    40  O          0.89021000       0.06748800       0.86488000
    41  O          0.83241000       0.87191500       0.29828000
    42  O          0.66759000       0.87191500       0.79828000
    43  O          0.33241000       0.12808500       0.29828000
    44  O          0.16759000       0.12808500       0.79828000
    45  O          0.15069000       0.50161200       0.38198000
    46  O          0.34931000       0.50161200       0.88198000
    47  O          0.65069000       0.49838800       0.38198000
    48  O          0.84931000       0.49838800       0.88198000
    49  O          0.95441000       0.62791200       0.27838000
    50  O          0.54559000       0.62791200       0.77838000
    51  O          0.45441000       0.37208800       0.27838000
    52  O          0.04559000       0.37208800       0.77838000
    53  O          0.41671000       0.68451100       0.46981000
    54  O          0.08329000       0.68451100       0.96981000
    55  O          0.91671000       0.31548900       0.46981000
    56  O          0.58329000       0.31548900       0.96981000
    57  O          0.43181000       0.87931100       0.53501000
    58  O          0.06819000       0.87931100       0.03501000
    59  O          0.93181000       0.12068900       0.53501000
    60  O          0.56819000       0.12068900       0.03501000
    61  H          0.76760000       0.71000000       0.64180000
    62  H          0.73240000       0.71000000       0.14180000
    63  H          0.26760000       0.29000000       0.64180000
    64  H          0.23240000       0.29000000       0.14180000
    65  H          0.74550000       0.71270000       0.46200000
    66  H          0.75450000       0.71270000       0.96200000
    67  H          0.24550000       0.28730000       0.46200000
    68  H          0.25450000       0.28730000       0.96200000
    69  H          0.07880000       0.61060000       0.74400000
    70  H          0.42120000       0.61060000       0.24400000
    71  H          0.57880000       0.38940000       0.74400000
    72  H          0.92120000       0.38940000       0.24400000
    73  H          0.22810000       0.57190000       0.61680000
    74  H          0.27190000       0.57190000       0.11680000
    75  H          0.72810000       0.42810000       0.61680000
    76  H          0.77190000       0.42810000       0.11680000
    77  H          0.14290000       0.94360000       0.62240000
    78  H          0.35710000       0.94360000       0.12240000
    79  H          0.64290000       0.05640000       0.62240000
    80  H          0.85710000       0.05640000       0.12240000
    81  H          0.02650000       0.87290000       0.74990000
    82  H          0.47350000       0.87290000       0.24990000
    83  H          0.52650000       0.12710000       0.74990000
    84  H          0.97350000       0.12710000       0.24990000
