data_CUBHUE
_symmetry_space_group_name_H-M    'P1'
_symmetry_Int_Tables_number       1
loop_
_symmetry_equiv_pos_site_id
_symmetry_equiv_pos_as_xyz
1 x,y,z
_cell_length_a                   5.11798
_cell_length_b                   12.207918
_cell_length_c                   12.750819
_cell_angle_alpha                90.0
_cell_angle_beta                 90.0
_cell_angle_gamma                90.0
loop_
_atom_site_label
_atom_site_type_symbol
_atom_site_fract_x
_atom_site_fract_y
_atom_site_fract_z
     1  H          0.45950000       0.91078200       0.26191700
     2  H          0.04050000       0.08921800       0.76191700
     3  H          0.54050000       0.41078200       0.23808300
     4  H          0.95950000       0.58921800       0.73808300
     5  H          0.89560000       0.25951600       0.25531400
     6  H          0.60440000       0.74048400       0.75531400
     7  H          0.10440000       0.75951600       0.24468600
     8  H          0.39560000       0.24048400       0.74468600
     9  H          0.89740000       0.79248200       0.55801500
    10  H          0.60260000       0.20751800       0.05801500
    11  H          0.10260000       0.29248200       0.94198500
    12  H          0.39740000       0.70751800       0.44198500
    13  H          0.06830000       0.34141400       0.20541400
    14  H          0.43170000       0.65858600       0.70541400
    15  H          0.93170000       0.84141400       0.29458600
    16  H          0.56830000       0.15858600       0.79458600
    17  H          0.07340000       0.12811400       0.35921300
    18  H          0.42660000       0.87188600       0.85921300
    19  H          0.92660000       0.62811400       0.14078700
    20  H          0.57340000       0.37188600       0.64078700
    21  O          0.85742000       0.86061100       0.58257900
    22  O          0.64258000       0.13938900       0.08257900
    23  O          0.14258000       0.36061100       0.91742100
    24  O          0.35742000       0.63938900       0.41742100
    25  O          0.78475190       0.00611800       0.34998800
    26  O          0.71524810      -0.00611800       0.84998800
    27  O          0.21524810       0.50611800       0.15001200
    28  O          0.28475190       0.49388200       0.65001200
    29  O          0.38282000       0.97170100       0.28877800
    30  O          0.11718000       0.02829900       0.78877800
    31  O          0.61718000       0.47170100       0.21122200
    32  O          0.88282000       0.52829900       0.71122200
    33  O          0.47122000       0.29047800       0.29116800
    34  O          0.02878000       0.70952200       0.79116800
    35  O          0.52878000       0.79047800       0.20883200
    36  O          0.97122000       0.20952200       0.70883200
    37  O          0.49332000       0.83677200       0.48702800
    38  O          0.00668000       0.16322800       0.98702800
    39  O          0.50668000       0.33677200       0.01297200
    40  O         -0.00668000       0.66322800       0.51297200
    41  N          0.04583000       0.28334110       0.24147100
    42  N          0.45417000       0.71665890       0.74147100
    43  N          0.95417000       0.78334110       0.25852900
    44  N          0.54583000       0.21665890       0.75852900
    45  N          0.20632000       0.16551100       0.36703100
    46  N          0.29368000       0.83448900       0.86703100
    47  N          0.79368000       0.66551100       0.13296900
    48  N          0.70632000       0.33448900       0.63296900
    49  C          0.55053000       0.00347110       0.58313110
    50  C          0.94947000      -0.00347110       0.08313110
    51  C          0.44947000       0.50347110       0.91686890
    52  C          0.05053000       0.49652890       0.41686890
    53  H          0.70590000       0.05170000       0.58190000
    54  H          0.79410000       0.94830000       0.08190000
    55  H          0.29410000       0.55170000       0.91810000
    56  H          0.20590000       0.44830000       0.41810000
    57  H          0.49300000      -0.00300000       0.65700000
    58  H          0.00700000       0.00300000       0.15700000
    59  H          0.50700000       0.49700000       0.84300000
    60  H         -0.00700000       0.50300000       0.34300000
    61  C          0.33273000       0.05799120       0.52005110
    62  C          0.16727000       0.94200880       0.02005110
    63  C          0.66727000       0.55799120       0.97994890
    64  C          0.83273000       0.44200880       0.47994890
    65  H          0.24900000       0.11470000       0.56420000
    66  H          0.25100000       0.88530000       0.06420000
    67  H          0.75100000       0.61470000       0.93580000
    68  H          0.74900000       0.38530000       0.43580000
    69  H          0.19840000       0.00230000       0.50330000
    70  H          0.30160000      -0.00230000       0.00330000
    71  H          0.80160000       0.50230000      -0.00330000
    72  H          0.69840000       0.49770000       0.49670000
    73  C          0.55063000       0.02504110       0.34701110
    74  C          0.94937000       0.97495890       0.84701110
    75  C          0.44937000       0.52504110       0.15298890
    76  C          0.05063000       0.47495890       0.65298890
    77  C          0.62903000       0.89197880       0.54451110
    78  C          0.87097000       0.10802120       0.04451110
    79  C          0.37097000       0.39197880       0.95548890
    80  C          0.12903000       0.60802120       0.45548890
    81  C          0.24833000       0.24836110       0.29867120
    82  C          0.25167000       0.75163890       0.79867120
    83  C          0.75167000       0.74836110       0.20132880
    84  C          0.74833000       0.25163890       0.70132880
    85  C          0.42523000       0.11125110       0.41757110
    86  C          0.07477000       0.88874890       0.91757110
    87  C          0.57477000       0.61125110       0.08242890
    88  C          0.92523000       0.38874890       0.58242890
    89  H          0.55730000       0.16611200       0.43111100
    90  H          0.94270000       0.83388800       0.93111100
    91  H          0.44270000       0.66611200       0.06888900
    92  H          0.05730000       0.33388800       0.56888900
