data_CUBHUE01
_symmetry_space_group_name_H-M    'P1'
_symmetry_Int_Tables_number       1
loop_
_symmetry_equiv_pos_site_id
_symmetry_equiv_pos_as_xyz
1 x,y,z
_cell_length_a                   5.36155
_cell_length_b                   15.812315
_cell_length_c                   9.96319
_cell_angle_alpha                90.0
_cell_angle_beta                 90.8992
_cell_angle_gamma                90.0
loop_
_atom_site_label
_atom_site_type_symbol
_atom_site_fract_x
_atom_site_fract_y
_atom_site_fract_z
     1  O         -0.00852000       0.50166900       0.87419880
     2  O          0.00852000       0.00166900       0.12580120
     3  O          0.02522000       0.66005900       0.08005130
     4  O         -0.02522000       0.16005900       0.91994870
     5  O          0.86818000       0.48653900       0.62624130
     6  O          0.13182000       0.98653900       0.37375870
     7  O          0.66488000       0.60248900       0.14265130
     8  O          0.33512000       0.10248900       0.85734870
     9  O          0.24752000       0.52823900       0.56835120
    10  O          0.75248000       0.02823900       0.43164880
    11  N          0.41133000       0.50953110       0.84879840
    12  N          0.58867000       0.00953110       0.15120160
    13  C          0.20613000       0.50693110       0.92429830
    14  C          0.79387000       0.00693110       0.07570170
    15  N          0.24373000       0.50705100       0.05826140
    16  N          0.75627000       0.00705100       0.94173860
    17  C          0.13593000       0.51806120       0.29233160
    18  C          0.86407000       0.01806120       0.70766840
    19  H          0.25460000       0.47230000       0.30450000
    20  H          0.74540000       0.97230000       0.69550000
    21  H          0.22420000       0.57090000       0.30720000
    22  H          0.77580000       0.07090000       0.69280000
    23  C          0.03303000       0.51610130       0.14732160
    24  C          0.96697000       0.01610130       0.85267840
    25  C          0.88647000       0.59656120       0.12130170
    26  C          0.11353000       0.09656120       0.87869830
    27  C          0.03263000       0.50954120       0.53773170
    28  C          0.96737000       0.00954120       0.46226830
    29  C          0.93187000       0.50959130       0.39564160
    30  C          0.06813000       0.00959130       0.60435840
    31  H          0.81530000       0.55610000       0.38470000
    32  H          0.18470000       0.05610000       0.61530000
    33  H          0.84130000       0.45740000       0.37950000
    34  H          0.15870000       0.95740000       0.62050000
    35  H          0.37840000       0.52221600       0.09020000
    36  H          0.62160000       0.02221600       0.90980000
    37  H          0.39940000       0.51441500       0.76180000
    38  H          0.60060000       0.01441500       0.23820000
    39  H          0.54940000       0.51511400       0.88380000
    40  H          0.45060000       0.01511400       0.11620000
    41  H          0.92650000       0.49441700       0.71630000
    42  H          0.07350000      -0.00558300       0.28370000
    43  H          0.93650000       0.70361700       0.07520000
    44  H          0.06350000       0.20361700       0.92480000
    45  H          0.92570000       0.46801300       0.13541800
    46  H          0.07430000       0.96801300       0.86458200
    47  O          0.74612000       0.79317800       0.02064120
    48  O          0.25388000       0.29317800       0.97935880
    49  O          0.49372000       0.81812900       0.70877120
    50  O          0.50628000       0.31812900       0.29122880
    51  O          0.36032000       0.82830900       0.95665870
    52  O          0.63968000       0.32830900       0.04334130
    53  N          0.91103000       0.80149110       0.74357160
    54  N          0.08897000       0.30149110       0.25642840
    55  O          0.53002000       0.65953900       0.50082130
    56  O          0.46998000       0.15953900       0.49917870
    57  N          0.74773000       0.81237110       0.52982140
    58  N          0.25227000       0.31237110       0.47017860
    59  O          0.16652000       0.71831900       0.44250130
    60  O          0.83348000       0.21831900       0.55749870
    61  C          0.63553000       0.80488120       0.29408160
    62  C          0.36447000       0.30488120       0.70591840
    63  H          0.73600000       0.85520000       0.28160000
    64  H          0.26400000       0.35520000       0.71840000
    65  H          0.74270000       0.75610000       0.28200000
    66  H          0.25730000       0.25610000       0.71800000
    67  C          0.38953000       0.72354120       0.46242170
    68  C          0.61047000       0.22354120       0.53757830
    69  C          0.53663000       0.80432120       0.43775170
    70  C          0.46337000       0.30432120       0.56224830
    71  C          0.52793000       0.80776120       0.04786170
    72  C          0.47207000       0.30776120       0.95213830
    73  C          0.70933000       0.80974120       0.66356170
    74  C          0.29067000       0.30974120       0.33643830
    75  C          0.42903000       0.80313120       0.18783160
    76  C          0.57097000       0.30313120       0.81216840
    77  H          0.33330000       0.75150000       0.19740000
    78  H          0.66670000       0.25150000       0.80260000
    79  H          0.31740000       0.85040000       0.20220000
    80  H          0.68260000       0.35040000       0.79780000
    81  H          0.88540000       0.79811400       0.82820000
    82  H          0.11460000       0.29811400       0.17180000
    83  H          0.41950000       0.82631800       0.87870000
    84  H          0.58050000       0.32631800       0.12130000
    85  H          0.87840000       0.78761400       0.50220000
    86  H          0.12160000       0.28761400       0.49780000
    87  H          0.43940000       0.61931700       0.51320000
    88  H          0.56060000       0.11931700       0.48680000
    89  H          0.42640000       0.85111400       0.45120000
    90  H          0.57360000       0.35111400       0.54880000
    91  H          0.04630000       0.79481500       0.70720000
    92  H          0.95370000       0.29481500       0.29280000
