data_CUBHUE02
_symmetry_space_group_name_H-M    'P1'
_symmetry_Int_Tables_number       1
loop_
_symmetry_equiv_pos_site_id
_symmetry_equiv_pos_as_xyz
1 x,y,z
_cell_length_a                   5.170712
_cell_length_b                   12.2783
_cell_length_c                   12.9593
_cell_angle_alpha                90.0
_cell_angle_beta                 90.0
_cell_angle_gamma                90.0
loop_
_atom_site_label
_atom_site_type_symbol
_atom_site_fract_x
_atom_site_fract_y
_atom_site_fract_z
     1  O          0.61623000       0.02931160       0.78849160
     2  O          0.11623000       0.47068840       0.21150840
     3  O          0.38377000       0.52931160       0.71150840
     4  O          0.88377000       0.97068840       0.28849160
     5  H          0.53810000       0.07380000       0.75300000
     6  H          0.03810000       0.42620000       0.24700000
     7  H          0.46190000       0.57380000       0.74700000
     8  H          0.96190000       0.92620000       0.25300000
     9  O          0.21894000      -0.00745160       0.84616160
    10  O          0.71894000       0.50745160       0.15383840
    11  O          0.78106000       0.49254840       0.65383840
    12  O          0.28106000       0.00745160       0.34616160
    13  O          0.50495000       0.16301160       0.98543180
    14  O          0.00495000       0.33698840       0.01456820
    15  O          0.49505000       0.66301160       0.51456820
    16  O         -0.00495000       0.83698840       0.48543180
    17  H          0.43250000       0.22130000       0.97430000
    18  H          0.93250000       0.27870000       0.02570000
    19  H          0.56750000       0.72130000       0.52570000
    20  H          0.06750000       0.77870000       0.47430000
    21  O          0.14994000       0.13930170       0.08144190
    22  O          0.64994000       0.36069830       0.91855810
    23  O          0.85006000       0.63930170       0.41855810
    24  O          0.35006000       0.86069830       0.58144190
    25  O          0.53134000       0.70904850       0.79322170
    26  O          0.03134000       0.79095150       0.20677830
    27  O          0.46866000       0.20904850       0.70677830
    28  O          0.96866000       0.29095150       0.29322170
    29  C          0.75275000       0.75161810       0.80022000
    30  C          0.25275000       0.74838190       0.19978000
    31  C          0.24725000       0.25161810       0.69978000
    32  C          0.74725000       0.24838190       0.30022000
    33  N          0.95255000       0.71578000       0.74502000
    34  N          0.45255000       0.78422000       0.25498000
    35  N          0.04745000       0.21578000       0.75498000
    36  N          0.54745000       0.28422000       0.24502000
    37  H          0.93270000       0.66210000       0.70310000
    38  H          0.43270000       0.83790000       0.29690000
    39  H          0.06730000       0.16210000       0.79690000
    40  H          0.56730000       0.33790000       0.20310000
    41  H          0.10140000       0.74630000       0.75130000
    42  H          0.60140000       0.75370000       0.24870000
    43  H          0.89860000       0.24630000       0.74870000
    44  H          0.39860000       0.25370000       0.25130000
    45  C          0.45105000       0.97508000       0.84537190
    46  C          0.95105000       0.52492000       0.15462810
    47  C          0.54895000       0.47508000       0.65462810
    48  C          0.04895000       0.02492000       0.34537190
    49  N          0.79134000       0.83582830       0.86499180
    50  N          0.29134000       0.66417170       0.13500820
    51  N          0.20866000       0.33582830       0.63500820
    52  N          0.70866000       0.16417170       0.36499180
    53  H          0.94630000       0.85780000       0.87690000
    54  H          0.44630000       0.64220000       0.12310000
    55  H          0.05370000       0.35780000       0.62310000
    56  H          0.55370000       0.14220000       0.37690000
    57  C          0.57555000       0.89018000       0.91522000
    58  C          0.07555000       0.60982000       0.08478000
    59  C          0.42445000       0.39018000       0.58478000
    60  C          0.92445000       0.10982000       0.41522000
    61  H          0.44490000       0.83530000       0.93230000
    62  H          0.94490000       0.66470000       0.06770000
    63  H          0.55510000       0.33530000       0.56770000
    64  H          0.05510000       0.16470000       0.43230000
    65  C          0.37216000       0.10802000       0.04292000
    66  C          0.87216000       0.39198000       0.95708000
    67  C          0.62784000       0.60802000       0.45708000
    68  C          0.12784000       0.89198000       0.54292000
    69  C          0.45416000      -0.00272000       0.07912000
    70  C          0.95416000       0.50272000       0.92088000
    71  C          0.54584000       0.49728000       0.42088000
    72  C          0.04584000       0.00272000       0.57912000
    73  H          0.51330000       0.00330000       0.14990000
    74  H          0.01330000       0.49670000       0.85010000
    75  H          0.48670000       0.50330000       0.35010000
    76  H         -0.01330000      -0.00330000       0.64990000
    77  H          0.30400000       0.94990000       0.07890000
    78  H          0.80400000       0.55010000       0.92110000
    79  H          0.69600000       0.44990000       0.42110000
    80  H          0.19600000       0.05010000       0.57890000
    81  C          0.66596000       0.94388000       0.01572000
    82  C          0.16596000       0.55612000       0.98428000
    83  C          0.33404000       0.44388000       0.48428000
    84  C          0.83404000       0.05612000       0.51572000
    85  H          0.74980000       0.88910000       0.05790000
    86  H          0.24980000       0.61090000       0.94210000
    87  H          0.25020000       0.38910000       0.44210000
    88  H          0.75020000       0.11090000       0.55790000
    89  H          0.79460000      -0.00140000      -0.00110000
    90  H          0.29460000       0.50140000       0.00110000
    91  H          0.20540000       0.49860000       0.50110000
    92  H          0.70540000       0.00140000       0.49890000
