data_CUNKAY02
_symmetry_space_group_name_H-M    'P1'
_symmetry_Int_Tables_number       1
loop_
_symmetry_equiv_pos_site_id
_symmetry_equiv_pos_as_xyz
1 x,y,z
_cell_length_a                   9.20353
_cell_length_b                   14.08304
_cell_length_c                   10.69394
_cell_angle_alpha                90.0
_cell_angle_beta                 100.740612
_cell_angle_gamma                90.0
loop_
_atom_site_label
_atom_site_type_symbol
_atom_site_fract_x
_atom_site_fract_y
_atom_site_fract_z
     1  N          0.80745140       0.12613900       0.30292130
     2  N          0.69254860       0.62613900       0.19707870
     3  N          0.19254860       0.87386100       0.69707870
     4  N          0.30745140       0.37386100       0.80292130
     5  C          0.73474170       0.04281110       0.27704150
     6  C          0.76525830       0.54281110       0.22295850
     7  C          0.26525830       0.95718890       0.72295850
     8  C          0.23474170       0.45718890       0.77704150
     9  C          0.81216170       0.95822890       0.25612150
    10  C          0.68783830       0.45822890       0.24387850
    11  C          0.18783830       0.04177110       0.74387850
    12  C          0.31216170       0.54177110       0.75612150
    13  C          0.96370170       0.96355880       0.26349160
    14  C          0.53629830       0.46355880       0.23650840
    15  C          0.03629830       0.03644120       0.73650840
    16  C          0.46370170       0.53644120       0.76349160
    17  H          0.01770000       0.90830000       0.24930000
    18  H          0.48230000       0.40830000       0.25070000
    19  H         -0.01770000       0.09170000       0.75070000
    20  H          0.51770000       0.59170000       0.74930000
    21  C          0.03723180       0.04944120       0.29157170
    22  C          0.46276820       0.54944120       0.20842830
    23  C          0.96276820       0.95055880       0.70842830
    24  C          0.53723180       0.45055880       0.79157170
    25  H          0.14140000       0.05380000       0.29800000
    26  H          0.35860000       0.55380000       0.20200000
    27  H          0.85860000       0.94620000       0.70200000
    28  H          0.64140000       0.44620000       0.79800000
    29  C          0.95442170       0.12781120       0.30968160
    30  C          0.54557830       0.62781120       0.19031840
    31  C          0.04557830       0.87218880       0.69031840
    32  C          0.45442170       0.37218880       0.80968160
    33  H          0.00430000       0.18670000       0.32810000
    34  H          0.49570000       0.68670000       0.17190000
    35  H         -0.00430000       0.81330000       0.67190000
    36  H          0.50430000       0.31330000       0.82810000
    37  C          0.73372170       0.86600890       0.22981150
    38  C          0.76627830       0.36600890       0.27018850
    39  C          0.26627830       0.13399110       0.77018850
    40  C          0.23372170       0.63399110       0.72981150
    41  O          0.82450120       0.79473200       0.22499120
    42  O          0.67549880       0.29473200       0.27500880
    43  O          0.17549880       0.20526800       0.77500880
    44  O          0.32450120       0.70526800       0.72499120
    45  H          0.77590000       0.74410000       0.21110000
    46  H          0.72410000       0.24410000       0.28890000
    47  H          0.22410000       0.25590000       0.78890000
    48  H          0.27590000       0.75590000       0.71110000
    49  O          0.59886110       0.85729200       0.21439110
    50  O          0.90113890       0.35729200       0.28560890
    51  O          0.40113890       0.14270800       0.78560890
    52  O          0.09886110       0.64270800       0.71439110
    53  N          0.58676140       0.04228900       0.27228130
    54  N          0.91323860       0.54228900       0.22771870
    55  N          0.41323860       0.95771100       0.72771870
    56  N          0.08676140       0.45771100       0.77228130
    57  H          0.53690000      -0.00730000       0.23720000
    58  H          0.96310000       0.49270000       0.26280000
    59  H          0.46310000       0.00730000       0.76280000
    60  H          0.03690000       0.50730000       0.73720000
    61  C          0.50515160       0.11591110       0.31984150
    62  C         -0.00515160       0.61591110       0.18015850
    63  C          0.49484840       0.88408890       0.68015850
    64  C          0.00515160       0.38408890       0.81984150
    65  C          0.53655160       0.13898110       0.44952160
    66  C          0.96344840       0.63898110       0.05047840
    67  C          0.46344840       0.86101890       0.55047840
    68  C          0.03655160       0.36101890       0.94952160
    69  C          0.45543160       0.21101110       0.49314150
    70  C          0.04456840       0.71101110       0.00685850
    71  C          0.54456840       0.78898890       0.50685850
    72  C          0.95543160       0.28898890      -0.00685850
    73  H          0.47730000       0.22810000       0.58060000
    74  H          0.02270000       0.72810000       0.91940000
    75  H          0.52270000       0.77190000       0.41940000
    76  H          0.97730000       0.27190000       0.08060000
    77  C          0.34323170       0.25877110       0.41229160
    78  C          0.15676830       0.75877110       0.08770840
    79  C          0.65676830       0.74122890       0.58770840
    80  C          0.84323170       0.24122890       0.91229160
    81  C          0.31181160       0.23167110       0.28573150
    82  C          0.18818840       0.73167110       0.21426850
    83  C          0.68818840       0.76832890       0.71426850
    84  C          0.81181160       0.26832890       0.78573150
    85  H          0.23340000       0.26250000       0.23020000
    86  H          0.26660000       0.76250000       0.26980000
    87  H          0.76660000       0.73750000       0.76980000
    88  H          0.73340000       0.23750000       0.73020000
    89  C          0.39089160       0.16084110       0.23666150
    90  C          0.10910840       0.66084110       0.26333850
    91  C          0.60910840       0.83915890       0.76333850
    92  C          0.89089160       0.33915890       0.73666150
    93  C          0.65366180       0.08633120       0.54113160
    94  C          0.84633820       0.58633120       0.95886840
    95  C          0.34633820       0.91366880       0.45886840
    96  C          0.15366180       0.41366880       0.04113160
    97  H          0.65320000       0.01920000       0.51670000
    98  H          0.84680000       0.51920000       0.98330000
    99  H          0.34680000       0.98080000       0.48330000
   100  H          0.15320000       0.48080000       0.01670000
   101  H          0.63300000       0.09170000       0.62750000
   102  H          0.86700000       0.59170000       0.87250000
   103  H          0.36700000       0.90830000       0.37250000
   104  H          0.13300000       0.40830000       0.12750000
   105  H          0.75090000       0.11390000       0.53870000
   106  H          0.74910000       0.61390000       0.96130000
   107  H          0.24910000       0.88610000       0.46130000
   108  H          0.25090000       0.38610000       0.03870000
   109  C          0.25890180       0.33800130       0.46203180
   110  C          0.24109820       0.83800130       0.03796820
   111  C          0.74109820       0.66199870       0.53796820
   112  C          0.75890180       0.16199870       0.96203180
   113  H          0.22350000       0.31630000       0.53810000
   114  H          0.27650000       0.81630000       0.96190000
   115  H          0.77650000       0.68370000       0.46190000
   116  H          0.72350000       0.18370000       0.03810000
   117  H          0.17430000       0.35620000       0.39650000
   118  H          0.32570000       0.85620000       0.10350000
   119  H          0.82570000       0.64380000       0.60350000
   120  H          0.67430000       0.14380000       0.89650000
   121  H          0.32420000       0.39290000       0.48380000
   122  H          0.17580000       0.89290000       0.01620000
   123  H          0.67580000       0.60710000       0.51620000
   124  H          0.82420000       0.10710000       0.98380000
   125  C          0.35541190       0.13510130       0.09772160
   126  C          0.14458810       0.63510130       0.40227840
   127  C          0.64458810       0.86489870       0.90227840
   128  C          0.85541190       0.36489870       0.59772160
   129  H          0.27550000       0.17590000       0.05420000
   130  H          0.22450000       0.67590000       0.44580000
   131  H          0.72450000       0.82410000       0.94580000
   132  H          0.77550000       0.32410000       0.55420000
   133  H          0.32420000       0.06850000       0.08870000
   134  H          0.17580000       0.56850000       0.41130000
   135  H          0.67580000       0.93150000       0.91130000
   136  H          0.82420000       0.43150000       0.58870000
   137  H          0.44350000       0.14410000       0.05980000
   138  H          0.05650000       0.64410000       0.44020000
   139  H          0.55650000       0.85590000       0.94020000
   140  H          0.94350000       0.35590000       0.55980000
