data_CUNKAY01
_symmetry_space_group_name_H-M    'P1'
_symmetry_Int_Tables_number       1
loop_
_symmetry_equiv_pos_site_id
_symmetry_equiv_pos_as_xyz
1 x,y,z
_cell_length_a                   7.53012
_cell_length_b                   7.53012
_cell_length_c                   20.62151
_cell_angle_alpha                90.0
_cell_angle_beta                 90.0
_cell_angle_gamma                120.0
loop_
_atom_site_label
_atom_site_type_symbol
_atom_site_fract_x
_atom_site_fract_y
_atom_site_fract_z
     1  N          0.61824000       0.46064000       0.24460150
     2  N          0.53936000       0.15760000       0.91126817
     3  N          0.84240000       0.38176000       0.57793483
     4  C          0.60195000       0.33895000       0.19410190
     5  C          0.66105000       0.26300000       0.86076857
     6  C          0.73700000       0.39805000       0.52743523
     7  C          0.55185000       0.37516000       0.13082000
     8  C          0.62484000       0.17669000       0.79748667
     9  C          0.82331000       0.44815000       0.46415333
    10  C          0.51285000       0.53545000       0.12313190
    11  C          0.46455000       0.97740000       0.78979857
    12  C          0.02260000       0.48715000       0.45646523
    13  H          0.47710000       0.56230000       0.08160000
    14  H          0.43770000       0.91480000       0.74826667
    15  H          0.08520000       0.52290000       0.41493333
    16  C          0.52546000       0.65665000       0.17532000
    17  C          0.34335000       0.86881000       0.84198667
    18  C          0.13119000       0.47454000       0.50865333
    19  H          0.49730000       0.76570000       0.17040000
    20  H          0.23430000       0.73160000       0.83706667
    21  H          0.26840000       0.50270000       0.50373333
    22  C          0.57975000       0.61435000       0.23452000
    23  C          0.38565000       0.96540000       0.90118667
    24  C          0.03460000       0.42025000       0.56785333
    25  H          0.59070000       0.69860000       0.27030000
    26  H          0.30140000       0.89210000       0.93696667
    27  H          0.10790000       0.40930000       0.60363333
    28  C          0.55046000       0.25436000       0.07420180
    29  C          0.74564000       0.29610000       0.74086847
    30  C          0.70390000       0.44954000       0.40753513
    31  O          0.48404000       0.29744000       0.02093120
    32  O          0.70256000       0.18660000       0.68759787
    33  O          0.81340000       0.51596000       0.35426453
    34  H          0.51590000       0.25080000       0.98870000
    35  H          0.74920000       0.26510000       0.65536667
    36  H          0.73490000       0.48410000       0.32203333
    37  O          0.60384000       0.12394000       0.07657140
    38  O          0.87606000       0.47990000       0.74323807
    39  O          0.52010000       0.39616000       0.40990473
    40  N          0.63635000       0.18174000       0.20490160
    41  N          0.81826000       0.45461000       0.87156827
    42  N          0.54539000       0.36365000       0.53823493
    43  H          0.63650000       0.11080000       0.17100000
    44  H          0.88920000       0.52570000       0.83766667
    45  H          0.47430000       0.36350000       0.50433333
    46  C          0.67266000       0.12115000       0.26702000
    47  C          0.87885000       0.55151000       0.93368667
    48  C          0.44849000       0.32734000       0.60035333
    49  C          0.87216000       0.17086000       0.28382000
    50  C          0.82914000       0.70130000       0.95048667
    51  C          0.29870000       0.12784000       0.61715333
    52  C          0.90446000       0.10476000       0.34342000
    53  C          0.89524000       0.79970000       0.01008667
    54  C          0.20030000       0.09554000       0.67675333
    55  H          0.03910000       0.13540000       0.35490000
    56  H          0.86460000       0.90370000       0.02156667
    57  H          0.09630000       0.96090000       0.68823333
    58  C          0.74517000      -0.00476000       0.38642000
    59  C          0.00476000       0.74993000       0.05308667
    60  C          0.25007000       0.25483000       0.71975333
    61  C          0.54776000       0.94824000       0.36892000
    62  C          0.05176000       0.59952000       0.03558667
    63  C          0.40048000       0.45224000       0.70225333
    64  H          0.43760000       0.87300000       0.39810000
    65  H          0.12700000       0.56460000       0.06476667
    66  H          0.43540000       0.56240000       0.73143333
    67  C          0.50866000       0.00906000       0.30959190
    68  C         -0.00906000       0.49960000       0.97625857
    69  C          0.50040000       0.49134000       0.64292523
    70  C          0.04697000       0.29837000       0.23803000
    71  C          0.70163000       0.74860000       0.90469667
    72  C          0.25140000       0.95303000       0.57136333
    73  H          0.17750000       0.33510000       0.25910000
    74  H          0.66490000       0.84240000       0.92576667
    75  H          0.15760000       0.82250000       0.59243333
    76  H          0.04460000       0.42340000       0.22640000
    77  H          0.57660000       0.62120000       0.89306667
    78  H          0.37880000       0.95540000       0.55973333
    79  H          0.03200000       0.21900000       0.19860000
    80  H          0.78100000       0.81300000       0.86526667
    81  H          0.18700000       0.96800000       0.53193333
    82  C          0.78528000       0.93224000       0.45162000
    83  C          0.06776000       0.85304000       0.11828667
    84  C          0.14696000       0.21472000       0.78495333
    85  H          0.90950000       0.92170000       0.44930000
    86  H          0.07830000      -0.01220000       0.11596667
    87  H          0.01220000       0.09050000       0.78263333
    88  H          0.66850000       0.79910000       0.46380000
    89  H          0.20090000       0.86940000       0.13046667
    90  H          0.13060000       0.33150000       0.79713333
    91  H          0.80370000       0.03520000       0.48410000
    92  H          0.96480000       0.76850000       0.15076667
    93  H          0.23150000       0.19630000       0.81743333
    94  C          0.29327000       0.95503000       0.29202000
    95  C          0.04497000       0.33824000       0.95868667
    96  C          0.66176000       0.70673000       0.62535333
    97  H          0.19780000       0.86280000       0.32490000
    98  H          0.13720000       0.33500000       0.99156667
    99  H          0.66500000       0.80220000       0.65823333
   100  H          0.25740000       0.88710000       0.24960000
   101  H          0.11290000       0.37030000       0.91626667
   102  H          0.62970000       0.74260000       0.58293333
   103  H          0.28440000       0.08050000       0.29000000
   104  H          0.91950000       0.20390000       0.95666667
   105  H          0.79610000       0.71560000       0.62333333
