data_CUNKAY
_symmetry_space_group_name_H-M    'P1'
_symmetry_Int_Tables_number       1
loop_
_symmetry_equiv_pos_site_id
_symmetry_equiv_pos_as_xyz
1 x,y,z
_cell_length_a                   14.27264
_cell_length_b                   8.64703
_cell_length_c                   21.31338
_cell_angle_alpha                90.0
_cell_angle_beta                 95.981214
_cell_angle_gamma                90.0
loop_
_atom_site_label
_atom_site_type_symbol
_atom_site_fract_x
_atom_site_fract_y
_atom_site_fract_z
     1  N          0.33466120       0.49432000       0.40470800
     2  N          0.16533880      -0.00568000       0.09529200
     3  N          0.66533880       0.50568000       0.59529200
     4  N          0.83466120       0.00568000       0.90470800
     5  C          0.24922150       0.42613000       0.39720100
     6  C          0.25077850       0.92613000       0.10279900
     7  C          0.75077850       0.57387000       0.60279900
     8  C          0.74922150       0.07387000       0.89720100
     9  C          0.16623150       0.51003000       0.40769100
    10  C          0.33376850       0.01003000       0.09230900
    11  C          0.83376850       0.48997000       0.59230900
    12  C          0.66623150      -0.01003000       0.90769100
    13  C          0.17571150       0.66373000       0.42500100
    14  C          0.32428850       0.16373000       0.07499900
    15  C          0.82428850       0.33627000       0.57499900
    16  C          0.67571150       0.83627000       0.92500100
    17  H          0.12160000       0.72180000       0.43270000
    18  H          0.37840000       0.22180000       0.06730000
    19  H          0.87840000       0.27820000       0.56730000
    20  H          0.62160000       0.77820000       0.93270000
    21  C          0.26307150       0.73343000       0.43120100
    22  C          0.23692850       0.23343000       0.06879900
    23  C          0.73692850       0.26657000       0.56879900
    24  C          0.76307150       0.76657000       0.93120100
    25  H          0.27000000       0.83950000       0.44240000
    26  H          0.23000000       0.33950000       0.05760000
    27  H          0.73000000       0.16050000       0.55760000
    28  H          0.77000000       0.66050000       0.94240000
    29  C          0.33971160       0.64493000       0.42069100
    30  C          0.16028840       0.14493000       0.07930900
    31  C          0.66028840       0.35507000       0.57930900
    32  C          0.83971160       0.85507000       0.92069100
    33  H          0.39990000       0.69280000       0.42500000
    34  H          0.10010000       0.19280000       0.07500000
    35  H          0.60010000       0.30720000       0.57500000
    36  H          0.89990000       0.80720000       0.92500000
    37  C          0.07104150       0.43893000       0.39791100
    38  C          0.42895850       0.93893000       0.10208900
    39  C          0.92895850       0.56107000       0.60208900
    40  C          0.57104150       0.06107000       0.89791100
    41  O          0.00536100       0.53007180       0.41555800
    42  O          0.49463900       0.03007180       0.08444200
    43  O         -0.00536100       0.46992820       0.58444200
    44  O          0.50536100       0.96992820       0.91555800
    45  H          0.95250000       0.48790000       0.40730000
    46  H          0.54750000      -0.01210000       0.09270000
    47  H          0.04750000       0.51210000       0.59270000
    48  H          0.45250000       0.01210000       0.90730000
    49  O          0.05593100       0.30960180       0.37549700
    50  O          0.44406900       0.80960180       0.12450300
    51  O          0.94406900       0.69039820       0.62450300
    52  O          0.55593100       0.19039820       0.87549700
    53  N          0.24397120       0.27472000       0.38068800
    54  N          0.25602880       0.77472000       0.11931200
    55  N          0.75602880       0.72528000       0.61931200
    56  N          0.74397120       0.22528000       0.88068800
    57  H          0.18440000       0.24180000       0.37150000
    58  H          0.31560000       0.74180000       0.12850000
    59  H          0.81560000       0.75820000       0.62850000
    60  H          0.68440000       0.25820000       0.87150000
    61  C          0.31897150       0.18683000       0.35852100
    62  C          0.18102850       0.68683000       0.14147900
    63  C          0.68102850       0.81317000       0.64147900
    64  C          0.81897150       0.31317000       0.85852100
    65  C          0.32705150       0.18273000       0.29368100
    66  C          0.17294850       0.68273000       0.20631900
    67  C          0.67294850       0.81727000       0.70631900
    68  C          0.82705150       0.31727000       0.79368100
    69  C          0.39962160       0.09493000       0.27267110
    70  C          0.10037840       0.59493000       0.22732890
    71  C          0.60037840       0.90507000       0.72732890
    72  C          0.89962160       0.40507000       0.77267110
    73  H          0.40710000       0.09340000       0.22890000
    74  H          0.09290000       0.59340000       0.27110000
    75  H          0.59290000       0.90660000       0.77110000
    76  H          0.90710000       0.40660000       0.72890000
    77  C          0.46096150       0.00983000       0.31381110
    78  C          0.03903850       0.50983000       0.18618890
    79  C          0.53903850      -0.00983000       0.68618890
    80  C          0.96096150       0.49017000       0.81381110
    81  C          0.44933150       0.01383000       0.37757100
    82  C          0.05066850       0.51383000       0.12242900
    83  C          0.55066850      -0.01383000       0.62242900
    84  C          0.94933150       0.48617000       0.87757100
    85  H          0.49010000       0.95380000       0.40600000
    86  H          0.00990000       0.45380000       0.09400000
    87  H          0.50990000       0.04620000       0.59400000
    88  H         -0.00990000       0.54620000       0.90600000
    89  C          0.37995150       0.10273000       0.40124100
    90  C          0.12004850       0.60273000       0.09875900
    91  C          0.62004850       0.89727000       0.59875900
    92  C          0.87995150       0.39727000       0.90124100
    93  C          0.25807160       0.26743000       0.24817110
    94  C          0.24192840       0.76743000       0.25182890
    95  C          0.74192840       0.73257000       0.75182890
    96  C          0.75807160       0.23257000       0.74817110
    97  H          0.19480000       0.22520000       0.25040000
    98  H          0.30520000       0.72520000       0.24960000
    99  H          0.80520000       0.77480000       0.74960000
   100  H          0.69480000       0.27480000       0.75040000
   101  H          0.27590000       0.25500000       0.20530000
   102  H          0.22410000       0.75500000       0.29470000
   103  H          0.72410000       0.74500000       0.79470000
   104  H          0.77590000       0.24500000       0.70530000
   105  H          0.25850000       0.37750000       0.25910000
   106  H          0.24150000       0.87750000       0.24090000
   107  H          0.74150000       0.62250000       0.74090000
   108  H          0.75850000       0.12250000       0.75910000
   109  C          0.53900160       0.91457000       0.29029110
   110  C          0.96099840       0.41457000       0.20970890
   111  C          0.46099840       0.08543000       0.70970890
   112  C          0.03900160       0.58543000       0.79029110
   113  H          0.53020000       0.91000000       0.24410000
   114  H          0.96980000       0.41000000       0.25590000
   115  H          0.46980000       0.09000000       0.75590000
   116  H          0.03020000       0.59000000       0.74410000
   117  H          0.53740000       0.80960000       0.30750000
   118  H          0.96260000       0.30960000       0.19250000
   119  H          0.46260000       0.19040000       0.69250000
   120  H          0.03740000       0.69040000       0.80750000
   121  H          0.60000000       0.96240000       0.30400000
   122  H          0.90000000       0.46240000       0.19600000
   123  H          0.40000000       0.03760000       0.69600000
   124  H          0.10000000       0.53760000       0.80400000
   125  C          0.37381160       0.11193000       0.47121100
   126  C          0.12618840       0.61193000       0.02878900
   127  C          0.62618840       0.88807000       0.52878900
   128  C          0.87381160       0.38807000       0.97121100
   129  H          0.40230000       0.01930000       0.49170000
   130  H          0.09770000       0.51930000       0.00830000
   131  H          0.59770000       0.98070000       0.50830000
   132  H          0.90230000       0.48070000       0.99170000
   133  H          0.30760000       0.11850000       0.47930000
   134  H          0.19240000       0.61850000       0.02070000
   135  H          0.69240000       0.88150000       0.52070000
   136  H          0.80760000       0.38150000       0.97930000
   137  H          0.40750000       0.20390000       0.48830000
   138  H          0.09250000       0.70390000       0.01170000
   139  H          0.59250000       0.79610000       0.51170000
   140  H          0.90750000       0.29610000       0.98830000
   141  N          0.16489130       0.58662000       0.59810800
   142  N          0.33510870       0.08662000       0.90189200
   143  N          0.83510870       0.41338000       0.40189200
   144  N          0.66489130       0.91338000       0.09810800
   145  C          0.24763150       0.51343000       0.59586100
   146  C          0.25236850       0.01343000       0.90413900
   147  C          0.75236850       0.48657000       0.40413900
   148  C          0.74763150      -0.01343000       0.09586100
   149  C          0.33216150       0.59823000       0.59192100
   150  C          0.16783850       0.09823000       0.90807900
   151  C          0.66783850       0.40177000       0.40807900
   152  C          0.83216150       0.90177000       0.09192100
   153  C          0.32705150       0.75763000       0.59027100
   154  C          0.17294850       0.25763000       0.90972900
   155  C          0.67294850       0.24237000       0.40972900
   156  C          0.82705150       0.74237000       0.09027100
   157  H          0.38260000       0.81670000       0.58760000
   158  H          0.11740000       0.31670000       0.91240000
   159  H          0.61740000       0.18330000       0.41240000
   160  H          0.88260000       0.68330000       0.08760000
   161  C          0.24152150       0.83203000       0.59241100
   162  C          0.25847850       0.33203000       0.90758900
   163  C          0.75847850       0.16797000       0.40758900
   164  C          0.74152150       0.66797000       0.09241100
   165  H          0.23730000       0.94160000       0.59090000
   166  H          0.26270000       0.44160000       0.90910000
   167  H          0.76270000       0.05840000       0.40910000
   168  H          0.73730000       0.55840000       0.09090000
   169  C          0.16295150       0.74213000       0.59677100
   170  C          0.33704850       0.24213000       0.90322900
   171  C          0.83704850       0.25787000       0.40322900
   172  C          0.66295150       0.75787000       0.09677100
   173  H          0.10420000       0.79250000       0.59890000
   174  H          0.39580000       0.29250000       0.90110000
   175  H          0.89580000       0.20750000       0.40110000
   176  H          0.60420000       0.70750000       0.09890000
   177  C          0.42563160       0.52023000       0.59250100
   178  C          0.07436840       0.02023000       0.90749900
   179  C          0.57436840       0.47977000       0.40749900
   180  C          0.92563160       0.97977000       0.09250100
   181  O          0.49483110       0.61972190       0.59259900
   182  O          0.00516890       0.11972190       0.90740100
   183  O          0.50516890       0.38027810       0.40740100
   184  O         -0.00516890       0.88027810       0.09259900
   185  H          0.54630000       0.57200000       0.59450000
   186  H          0.95370000       0.07200000       0.90550000
   187  H          0.45370000       0.42800000       0.40550000
   188  H          0.04630000       0.92800000       0.09450000
   189  O          0.43569100       0.37961190       0.59348700
   190  O          0.06430900       0.87961190       0.90651300
   191  O          0.56430900       0.62038810       0.40651300
   192  O          0.93569100       0.12038810       0.09348700
   193  N          0.24688120       0.35552000       0.59819800
   194  N          0.25311880       0.85552000       0.90180200
   195  N          0.75311880       0.64448000       0.40180200
   196  N          0.74688120       0.14448000       0.09819800
   197  H          0.30680000       0.31980000       0.60000000
   198  H          0.19320000       0.81980000       0.90000000
   199  H          0.69320000       0.68020000       0.40000000
   200  H          0.80680000       0.18020000       0.10000000
   201  C          0.17669140       0.27093000       0.62762100
   202  C          0.32330860       0.77093000       0.87237900
   203  C          0.82330860       0.72907000       0.37237900
   204  C          0.67669140       0.22907000       0.12762100
   205  C          0.10980150       0.18273000       0.59138100
   206  C          0.39019850       0.68273000       0.90861900
   207  C          0.89019850       0.81727000       0.40861900
   208  C          0.60980150       0.31727000       0.09138100
   209  C          0.04458150       0.09993000       0.62223110
   210  C          0.45541850       0.59993000       0.87776890
   211  C          0.95541850       0.90007000       0.37776890
   212  C          0.54458150       0.40007000       0.12223110
   213  H         -0.00040000       0.03730000       0.59800000
   214  H          0.50040000       0.53730000       0.90200000
   215  H          0.00040000       0.96270000       0.40200000
   216  H          0.49960000       0.46270000       0.09800000
   217  C          0.04289160       0.10563000       0.68715110
   218  C          0.45710840       0.60563000       0.81284890
   219  C          0.95710840       0.89437000       0.31284890
   220  C          0.54289160       0.39437000       0.18715110
   221  C          0.10948160       0.19653000       0.72147110
   222  C          0.39051840       0.69653000       0.77852890
   223  C          0.89051840       0.80347000       0.27852890
   224  C          0.60948160       0.30347000       0.22147110
   225  H          0.10870000       0.20270000       0.76590000
   226  H          0.39130000       0.70270000       0.73410000
   227  H          0.89130000       0.79730000       0.23410000
   228  H          0.60870000       0.29730000       0.26590000
   229  C          0.17746150       0.27923000       0.69338100
   230  C          0.32253850       0.77923000       0.80661900
   231  C          0.82253850       0.72077000       0.30661900
   232  C          0.67746150       0.22077000       0.19338100
   233  C          0.10423160       0.17763000       0.52044100
   234  C          0.39576840       0.67763000       0.97955900
   235  C          0.89576840       0.82237000       0.47955900
   236  C          0.60423160       0.32237000       0.02044100
   237  H          0.15210000       0.24630000       0.50590000
   238  H          0.34790000       0.74630000      -0.00590000
   239  H          0.84790000       0.75370000       0.49410000
   240  H          0.65210000       0.25370000       0.00590000
   241  H          0.04160000       0.21160000       0.50250000
   242  H          0.45840000       0.71160000      -0.00250000
   243  H          0.95840000       0.78840000       0.49750000
   244  H          0.54160000       0.28840000       0.00250000
   245  H          0.11530000       0.07160000       0.50670000
   246  H          0.38470000       0.57160000       0.99330000
   247  H          0.88470000       0.92840000       0.49330000
   248  H          0.61530000       0.42840000       0.00670000
   249  C          0.97167840       0.01403000       0.71927110
   250  C          0.52832160       0.51403000       0.78072890
   251  C          0.02832160      -0.01403000       0.28072890
   252  C          0.47167840       0.48597000       0.21927110
   253  H          0.90880000       0.02970000       0.69700000
   254  H          0.59120000       0.52970000       0.80300000
   255  H          0.09120000       0.97030000       0.30300000
   256  H          0.40880000       0.47030000       0.19700000
   257  H          0.97210000       0.04890000       0.76300000
   258  H          0.52790000       0.54890000       0.73700000
   259  H          0.02790000       0.95110000       0.23700000
   260  H          0.47210000       0.45110000       0.26300000
   261  H          0.98790000       0.90390000       0.71870000
   262  H          0.51210000       0.40390000       0.78130000
   263  H          0.01210000       0.09610000       0.28130000
   264  H          0.48790000       0.59610000       0.21870000
   265  C          0.25017160       0.37383000       0.73223110
   266  C          0.24982840       0.87383000       0.76776890
   267  C          0.74982840       0.62617000       0.26776890
   268  C          0.75017160       0.12617000       0.23223110
   269  H          0.23810000       0.48390000       0.72400000
   270  H          0.26190000      -0.01610000       0.77600000
   271  H          0.76190000       0.51610000       0.27600000
   272  H          0.73810000       0.01610000       0.22400000
   273  H          0.31300000       0.34710000       0.72090000
   274  H          0.18700000       0.84710000       0.77910000
   275  H          0.68700000       0.65290000       0.27910000
   276  H          0.81300000       0.15290000       0.22090000
   277  H          0.24680000       0.35230000       0.77710000
   278  H          0.25320000       0.85230000       0.72290000
   279  H          0.75320000       0.64770000       0.22290000
   280  H          0.74680000       0.14770000       0.27710000
