data_CUPREM02
_symmetry_space_group_name_H-M    'P1'
_symmetry_Int_Tables_number       1
loop_
_symmetry_equiv_pos_site_id
_symmetry_equiv_pos_as_xyz
1 x,y,z
_cell_length_a                   5.203401
_cell_length_b                   9.79822
_cell_length_c                   26.47645
_cell_angle_alpha                90.0
_cell_angle_beta                 90.0
_cell_angle_gamma                90.0
loop_
_atom_site_label
_atom_site_type_symbol
_atom_site_fract_x
_atom_site_fract_y
_atom_site_fract_z
     1  C          0.87353000       0.22126150       0.10240600
     2  C          0.62647000       0.77873850       0.60240600
     3  C          0.37353000       0.27873850       0.89759400
     4  C          0.12647000       0.72126150       0.39759400
     5  C          0.86954000       0.11034180       0.06925700
     6  C          0.63046000       0.88965820       0.56925700
     7  C          0.36954000       0.38965820       0.93074300
     8  C          0.13046000       0.61034180       0.43074300
     9  C          0.02985000       0.00012000       0.07580100
    10  C          0.47015000      -0.00012000       0.57580100
    11  C          0.52985000       0.49988000       0.92419900
    12  C          0.97015000       0.50012000       0.42419900
    13  H          0.02350000       0.92700000       0.05350000
    14  H          0.47650000       0.07300000       0.55350000
    15  H          0.52350000       0.57300000       0.94650000
    16  H         -0.02350000       0.42700000       0.44650000
    17  C          0.19855000      -0.00122000       0.11541100
    18  C          0.30145000       0.00122000       0.61541100
    19  C          0.69855000       0.50122000       0.88458900
    20  C          0.80145000       0.49878000       0.38458900
    21  H          0.30560000       0.92390000       0.12010000
    22  H          0.19440000       0.07610000       0.62010000
    23  H          0.80560000       0.57610000       0.87990000
    24  H          0.69440000       0.42390000       0.37990000
    25  C          0.21155000       0.10752000       0.14854900
    26  C          0.28845000       0.89248000       0.64854900
    27  C          0.71155000       0.39248000       0.85145100
    28  C          0.78845000       0.60752000       0.35145100
    29  H          0.32790000       0.10630000       0.17520000
    30  H          0.17210000       0.89370000       0.67520000
    31  H          0.82790000       0.39370000       0.82480000
    32  H          0.67210000       0.60630000       0.32480000
    33  C          0.05014000       0.21786180       0.14175700
    34  C          0.44986000       0.78213820       0.64175700
    35  C          0.55014000       0.28213820       0.85824300
    36  C          0.94986000       0.71786180       0.35824300
    37  H          0.05990000       0.29130000       0.16390000
    38  H          0.44010000       0.70870000       0.66390000
    39  H          0.55990000       0.20870000       0.83610000
    40  H          0.94010000       0.79130000       0.33610000
    41  C          0.68733000       0.33358150       0.09802600
    42  C          0.81267000       0.66641850       0.59802600
    43  C          0.18733000       0.16641850       0.90197400
    44  C          0.31267000       0.83358150       0.40197400
    45  H          0.53300000       0.31720000       0.08140000
    46  H          0.96700000       0.68280000       0.58140000
    47  H          0.03300000       0.18280000       0.91860000
    48  H          0.46700000       0.81720000       0.41860000
    49  C          0.51283000       0.54784150       0.11092600
    50  C         -0.01283000       0.45215850       0.61092600
    51  C          0.01283000       0.95215850       0.88907400
    52  C          0.48717000       0.04784150       0.38907400
    53  C          0.53883000       0.63794140       0.06397600
    54  C          0.96117000       0.36205860       0.56397600
    55  C          0.03883000       0.86205860       0.93602400
    56  C          0.46117000       0.13794140       0.43602400
    57  C          0.49143000       0.63669160       0.15765600
    58  C          0.00857000       0.36330840       0.65765600
    59  C         -0.00857000       0.86330840       0.84234400
    60  C          0.50857000       0.13669160       0.34234400
    61  C          0.29074000       0.61812000       0.19057700
    62  C          0.20926000       0.38188000       0.69057700
    63  C          0.79074000       0.88188000       0.80942300
    64  C          0.70926000       0.11812000       0.30942300
    65  H          0.16860000       0.55110000       0.18410000
    66  H          0.33140000       0.44890000       0.68410000
    67  H          0.66860000       0.94890000       0.81590000
    68  H          0.83140000       0.05110000       0.31590000
    69  C          0.26846000       0.69823000       0.23331900
    70  C          0.23154000       0.30177000       0.73331900
    71  C          0.76846000       0.80177000       0.76668100
    72  C          0.73154000       0.19823000       0.26668100
    73  H          0.13400000       0.68310000       0.25580000
    74  H          0.36600000       0.31690000       0.75580000
    75  H          0.63400000       0.81690000       0.74420000
    76  H          0.86600000       0.18310000       0.24420000
    77  C          0.44246000       0.79943000       0.24281900
    78  C          0.05754000       0.20057000       0.74281900
    79  C          0.94246000       0.70057000       0.75718100
    80  C          0.55754000       0.29943000       0.25718100
    81  H          0.42480000       0.85420000       0.27130000
    82  H          0.07520000       0.14580000       0.77130000
    83  H          0.92480000       0.64580000       0.72870000
    84  H          0.57520000       0.35420000       0.22870000
    85  C          0.64186000       0.81973000       0.21029900
    86  C          0.85814000       0.18027000       0.71029900
    87  C          0.14186000       0.68027000       0.78970100
    88  C          0.35814000       0.31973000       0.28970100
    89  H          0.76060000       0.88850000       0.21660000
    90  H          0.73940000       0.11150000       0.71660000
    91  H          0.26060000       0.61150000       0.78340000
    92  H          0.23940000       0.38850000       0.28340000
    93  C          0.66845000       0.73792000       0.16764800
    94  C          0.83155000       0.26208000       0.66764800
    95  C          0.16845000       0.76208000       0.83235200
    96  C          0.33155000       0.23792000       0.33235200
    97  H          0.80600000       0.75160000       0.14580000
    98  H          0.69400000       0.24840000       0.64580000
    99  H          0.30600000       0.74840000       0.85420000
   100  H          0.19400000       0.25160000       0.35420000
   101  N          0.72743000       0.45098120       0.11582500
   102  N          0.77257000       0.54901880       0.61582500
   103  N          0.22743000       0.04901880       0.88417500
   104  N          0.27257000       0.95098120       0.38417500
   105  N          0.76773000       0.65161170       0.04374600
   106  N          0.73227000       0.34838830       0.54374600
   107  N          0.26773000       0.84838830       0.95625400
   108  N          0.23227000       0.15161170       0.45625400
   109  O          0.34342000       0.69317120       0.04751400
   110  O          0.15658000       0.30682880       0.54751400
   111  O          0.84342000       0.80682880       0.95248600
   112  O          0.65658000       0.19317120       0.45248600
   113  Cl         0.66161130       0.11128600       0.01778200
   114  Cl         0.83838870       0.88871400       0.51778200
   115  Cl         0.16161130       0.38871400       0.98221800
   116  Cl         0.33838870       0.61128600       0.48221800
   117  H          0.34540000       0.50101800       0.10697000
   118  H          0.15460000       0.49898200       0.60697000
   119  H          0.84540000      -0.00101800       0.89303000
   120  H          0.65460000       0.00101800       0.39303000
   121  H          0.89550000       0.62020000       0.05729000
   122  H          0.60450000       0.37980000       0.55729000
   123  H          0.39550000       0.87980000       0.94271000
   124  H          0.10450000       0.12020000       0.44271000
   125  H          0.79040000       0.69620000       0.01698000
   126  H          0.70960000       0.30380000       0.51698000
   127  H          0.29040000       0.80380000       0.98302000
   128  H          0.20960000       0.19620000       0.48302000
