data_CUPREM
_symmetry_space_group_name_H-M    'P1'
_symmetry_Int_Tables_number       1
loop_
_symmetry_equiv_pos_site_id
_symmetry_equiv_pos_as_xyz
1 x,y,z
_cell_length_a                   18.5493
_cell_length_b                   13.8272
_cell_length_c                   5.31627
_cell_angle_alpha                90.0
_cell_angle_beta                 90.0
_cell_angle_gamma                90.0
loop_
_atom_site_label
_atom_site_type_symbol
_atom_site_fract_x
_atom_site_fract_y
_atom_site_fract_z
     1  C          0.72365190       0.32503000       0.75309000
     2  C          0.27634810       0.67497000       0.25309000
     3  C          0.77634810       0.82503000       0.25309000
     4  C          0.22365190       0.17497000       0.75309000
     5  C          0.73322000       0.25693000       0.56591000
     6  C          0.26678000       0.74307000       0.06591000
     7  C          0.76678000       0.75693000       0.06591000
     8  C          0.23322000       0.24307000       0.56591000
     9  H          0.70010000       0.20680000       0.54980000
    10  H          0.29990000       0.79320000       0.04980000
    11  H          0.79990000       0.70680000       0.04980000
    12  H          0.20010000       0.29320000       0.54980000
    13  C          0.79143000       0.26194000       0.40041300
    14  C          0.20857000       0.73806000       0.90041300
    15  C          0.70857000       0.76194000       0.90041300
    16  C          0.29143000       0.23806000       0.40041300
    17  H          0.79750000       0.21620000       0.27390000
    18  H          0.20250000       0.78380000       0.77390000
    19  H          0.70250000       0.71620000       0.77390000
    20  H          0.29750000       0.28380000       0.27390000
    21  C          0.84053000       0.33816000       0.43101600
    22  C          0.15947000       0.66184000       0.93101600
    23  C          0.65947000       0.83816000       0.93101600
    24  C          0.34053000       0.16184000       0.43101600
    25  H          0.88040000       0.34190000       0.32530000
    26  H          0.11960000       0.65810000       0.82530000
    27  H          0.61960000       0.84190000       0.82530000
    28  H          0.38040000       0.15810000       0.32530000
    29  C          0.83133000       0.40604000       0.61041500
    30  C          0.16867000       0.59396000       0.11041500
    31  C          0.66867000       0.90604000       0.11041500
    32  C          0.33133000       0.09396000       0.61041500
    33  H          0.86420000       0.45640000       0.62540000
    34  H          0.13580000       0.54360000       0.12540000
    35  H          0.63580000       0.95640000       0.12540000
    36  H          0.36420000       0.04360000       0.62540000
    37  C          0.77362000       0.40083000       0.76991100
    38  C          0.22638000       0.59917000       0.26991100
    39  C          0.72638000       0.90083000       0.26991100
    40  C          0.27362000       0.09917000       0.76991100
    41  C          0.66576170       0.31282000       0.93818000
    42  C          0.33423830       0.68718000       0.43818000
    43  C          0.83423830       0.81282000       0.43818000
    44  C          0.16576170       0.18718000       0.93818000
    45  H          0.66790000       0.34710000       0.08830000
    46  H          0.33210000       0.65290000       0.58830000
    47  H          0.83210000       0.84710000       0.58830000
    48  H          0.16790000       0.15290000       0.08830000
    49  C          0.56294170       0.24422000       0.10928000
    50  C          0.43705830       0.75578000       0.60928000
    51  C          0.93705830       0.74422000       0.60928000
    52  C          0.06294170       0.25578000       0.10928000
    53  H          0.58840000       0.25950000       0.26580000
    54  H          0.41160000       0.74050000       0.76580000
    55  H          0.91160000       0.75950000       0.76580000
    56  H          0.08840000       0.24050000       0.26580000
    57  C          0.53770180       0.13862000       0.12159000
    58  C          0.46229820       0.86138000       0.62159000
    59  C          0.96229820       0.63862000       0.62159000
    60  C          0.03770180       0.36138000       0.12159000
    61  C          0.49891180       0.31172000       0.08527000
    62  C          0.50108820       0.68828000       0.58527000
    63  C          0.00108820       0.81172000       0.58527000
    64  C         -0.00108820       0.18828000       0.08527000
    65  C          0.45186190       0.30603000       0.88498000
    66  C          0.54813810       0.69397000       0.38498000
    67  C          0.04813810       0.80603000       0.38498000
    68  C          0.95186190       0.19397000       0.88498000
    69  H          0.45800000       0.25820000       0.76370000
    70  H          0.54200000       0.74180000       0.26370000
    71  H          0.04200000       0.75820000       0.26370000
    72  H          0.95800000       0.24180000       0.76370000
    73  C          0.39552000       0.37123000       0.86331000
    74  C          0.60448000       0.62877000       0.36331000
    75  C          0.10448000       0.87123000       0.36331000
    76  C          0.89552000       0.12877000       0.86331000
    77  H          0.36370000       0.36670000       0.72860000
    78  H          0.63630000       0.63330000       0.22860000
    79  H          0.13630000       0.86670000       0.22860000
    80  H          0.86370000       0.13330000       0.72860000
    81  C          0.38652000       0.44263000       0.04121000
    82  C          0.61348000       0.55737000       0.54121000
    83  C          0.11348000       0.94263000       0.54121000
    84  C          0.88652000       0.05737000       0.04121000
    85  H          0.34880000       0.48660000       0.02640000
    86  H          0.65120000       0.51340000       0.52640000
    87  H          0.15120000       0.98660000       0.52640000
    88  H          0.84880000       0.01340000       0.02640000
    89  C          0.43253000       0.44873000       0.23661100
    90  C          0.56747000       0.55127000       0.73661100
    91  C          0.06747000       0.94873000       0.73661100
    92  C          0.93253000       0.05127000       0.23661100
    93  H          0.42630000       0.49690000       0.35650000
    94  H          0.57370000       0.50310000       0.85650000
    95  H          0.07370000      -0.00310000       0.85650000
    96  H          0.92630000       0.00310000       0.35650000
    97  C          0.48882000       0.38403000       0.26099000
    98  C          0.51118000       0.61597000       0.76099000
    99  C          0.01118000       0.88403000       0.76099000
   100  C          0.98882000       0.11597000       0.26099000
   101  H          0.52010000       0.38920000       0.39680000
   102  H          0.47990000       0.61080000       0.89680000
   103  H          0.97990000       0.88920000       0.89680000
   104  H          0.02010000       0.11080000       0.39680000
   105  N          0.61307140       0.25702000       0.89956000
   106  N          0.38692860       0.74298000       0.39956000
   107  N          0.88692860       0.75702000       0.39956000
   108  N          0.11307140       0.24298000       0.89956000
   109  N          0.53544170       0.09142000       0.90607000
   110  N          0.46455830       0.90858000       0.40607000
   111  N          0.96455830       0.59142000       0.40607000
   112  N          0.03544170       0.40858000       0.90607000
   113  H          0.52060000       0.03250000       0.90210000
   114  H          0.47940000       0.96750000       0.40210000
   115  H          0.97940000       0.53250000       0.40210000
   116  H          0.02060000       0.46750000       0.90210000
   117  H          0.54880000       0.11950000       0.76950000
   118  H          0.45120000       0.88050000       0.26950000
   119  H          0.95120000       0.61950000       0.26950000
   120  H          0.04880000       0.38050000       0.76950000
   121  O          0.51987160       0.10492190       0.32515000
   122  O          0.48012840       0.89507810       0.82515000
   123  O          0.98012840       0.60492190       0.82515000
   124  O          0.01987160       0.39507810       0.32515000
   125  Cl         0.76304700       0.49174800      -0.00916000
   126  Cl         0.23695300       0.50825200       0.49084000
   127  Cl         0.73695300      -0.00825200       0.49084000
   128  Cl         0.26304700       0.00825200      -0.00916000
