data_CUPREM01
_symmetry_space_group_name_H-M    'P1'
_symmetry_Int_Tables_number       1
loop_
_symmetry_equiv_pos_site_id
_symmetry_equiv_pos_as_xyz
1 x,y,z
_cell_length_a                   5.41312
_cell_length_b                   13.25156
_cell_length_c                   18.51449
_cell_angle_alpha                90.0
_cell_angle_beta                 90.0
_cell_angle_gamma                90.0
loop_
_atom_site_label
_atom_site_type_symbol
_atom_site_fract_x
_atom_site_fract_y
_atom_site_fract_z
     1  C          0.69515000       0.58478180       0.77157120
     2  C          0.80485000       0.41521820       0.27157120
     3  C          0.19515000       0.91521820       0.22842880
     4  C          0.30485000       0.08478180       0.72842880
     5  C          0.70115000       0.66542000       0.72333130
     6  C          0.79885000       0.33458000       0.22333130
     7  C          0.20115000       0.83458000       0.27666870
     8  C          0.29885000       0.16542000       0.77666870
     9  C          0.53636000       0.67363000       0.66666140
    10  C          0.96364000       0.32637000       0.16666140
    11  C          0.03636000       0.82637000       0.33333860
    12  C          0.46364000       0.17363000       0.83333860
    13  H          0.54630000       0.72750000       0.63460000
    14  H          0.95370000       0.27250000       0.13460000
    15  H          0.04630000       0.77250000       0.36540000
    16  H          0.45370000       0.22750000       0.86540000
    17  C          0.35756000       0.60113000       0.65849160
    18  C          0.14244000       0.39887000       0.15849160
    19  C          0.85756000       0.89887000       0.34150840
    20  C          0.64244000       0.10113000       0.84150840
    21  H          0.24530000       0.60570000       0.62060000
    22  H          0.25470000       0.39430000       0.12060000
    23  H          0.74530000       0.89430000       0.37940000
    24  H          0.75470000       0.10570000       0.87940000
    25  C          0.34346000       0.52103000       0.70639150
    26  C          0.15654000       0.47897000       0.20639150
    27  C          0.84346000       0.97897000       0.29360850
    28  C          0.65654000       0.02103000       0.79360850
    29  H          0.22000000       0.47280000       0.70100000
    30  H          0.28000000       0.52720000       0.20100000
    31  H          0.72000000       0.02720000       0.29900000
    32  H          0.78000000       0.97280000       0.79900000
    33  C          0.51055000       0.51272000       0.76166130
    34  C         -0.01055000       0.48728000       0.26166130
    35  C          0.01055000       0.98728000       0.23833870
    36  C          0.48945000       0.01272000       0.73833870
    37  H          0.50060000       0.45810000       0.79310000
    38  H         -0.00060000       0.54190000       0.29310000
    39  H          0.00060000       0.04190000       0.20690000
    40  H          0.49940000       0.95810000       0.70690000
    41  C          0.87924000       0.57200170       0.82912120
    42  C          0.62076000       0.42799830       0.32912120
    43  C          0.37924000       0.92799830       0.17087880
    44  C          0.12076000       0.07200170       0.67087880
    45  H          0.02380000       0.60990000       0.82750000
    46  H          0.47620000       0.39010000       0.32750000
    47  H          0.52380000       0.89010000       0.17250000
    48  H         -0.02380000       0.10990000       0.67250000
    49  C          0.04964000       0.50154160       0.93297120
    50  C          0.45036000       0.49845840       0.43297120
    51  C          0.54964000      -0.00154160       0.06702880
    52  C          0.95036000       0.00154160       0.56702880
    53  H          0.20300000       0.52430000       0.91010000
    54  H          0.29700000       0.47570000       0.41010000
    55  H          0.70300000       0.97570000       0.08990000
    56  H          0.79700000       0.02430000       0.58990000
    57  C          0.08035000       0.39171160       0.95622120
    58  C          0.41965000       0.60828840       0.45622120
    59  C          0.58035000       0.10828840       0.04377880
    60  C          0.91965000       0.89171160       0.54377880
    61  C         -0.00026000       0.56657160      -0.00100880
    62  C          0.50026000       0.43342840       0.49899120
    63  C          0.49974000       0.93342840       0.00100880
    64  C          0.00026000       0.06657160       0.50100880
    65  C          0.78704000       0.55572000       0.04012140
    66  C          0.71296000       0.44428000       0.54012140
    67  C          0.28704000       0.94428000       0.95987860
    68  C          0.21296000       0.05572000       0.45987860
    69  H          0.67030000       0.50720000       0.02760000
    70  H          0.82970000       0.49280000       0.52760000
    71  H          0.17030000      -0.00720000       0.97240000
    72  H          0.32970000       0.00720000       0.47240000
    73  C          0.74835000       0.61632000       0.09934170
    74  C          0.75165000       0.38368000       0.59934170
    75  C          0.24835000       0.88368000       0.90065830
    76  C          0.25165000       0.11632000       0.40065830
    77  H          0.60600000       0.60770000       0.12680000
    78  H          0.89400000       0.39230000       0.62680000
    79  H          0.10600000       0.89230000       0.87320000
    80  H          0.39400000       0.10770000       0.37320000
    81  C          0.91575000       0.68902000       0.11852160
    82  C          0.58425000       0.31098000       0.61852160
    83  C          0.41575000       0.81098000       0.88147840
    84  C          0.08425000       0.18902000       0.38147840
    85  H          0.88730000       0.72960000       0.15870000
    86  H          0.61270000       0.27040000       0.65870000
    87  H          0.38730000       0.77040000       0.84130000
    88  H          0.11270000       0.22960000       0.34130000
    89  C          0.12416000       0.70152000       0.07826160
    90  C          0.37584000       0.29848000       0.57826160
    91  C          0.62416000       0.79848000       0.92173840
    92  C          0.87584000       0.20152000       0.42173840
    93  H          0.23840000       0.75080000       0.09090000
    94  H          0.26160000       0.24920000       0.59090000
    95  H          0.73840000       0.74920000       0.90910000
    96  H          0.76160000       0.25080000       0.40910000
    97  C          0.16664000       0.64072180       0.01851150
    98  C          0.33336000       0.35927820       0.51851150
    99  C          0.66664000       0.85927820       0.98148850
   100  C          0.83336000       0.14072180       0.48148850
   101  H          0.30910000       0.65000000       0.99120000
   102  H          0.19090000       0.35000000       0.49120000
   103  H          0.80910000       0.85000000       0.00880000
   104  H          0.69090000       0.15000000       0.50880000
   105  N          0.84664000       0.51092150       0.88078100
   106  N          0.65336000       0.48907850       0.38078100
   107  N          0.34664000       0.98907850       0.11921900
   108  N          0.15336000       0.01092150       0.61921900
   109  N          0.87635000       0.33668180       0.95737130
   110  N          0.62365000       0.66331820       0.45737130
   111  N          0.37635000       0.16331820       0.04262870
   112  N          0.12365000       0.83668180       0.54262870
   113  O          0.28513000       0.36091130       0.97524110
   114  O          0.21487000       0.63908870       0.47524110
   115  O          0.78513000       0.13908870       0.02475890
   116  O          0.71487000       0.86091130       0.52475890
   117  Cl         0.91803150       0.76208500       0.73332400
   118  Cl         0.58196850       0.23791500       0.23332400
   119  Cl         0.41803150       0.73791500       0.26667600
   120  Cl         0.08196850       0.26208500       0.76667600
   121  H          0.87760000       0.27530000       0.97581700
   122  H          0.62240000       0.72470000       0.47581700
   123  H          0.37760000       0.22470000       0.02418300
   124  H          0.12240000       0.77530000       0.52418300
   125  H          0.74860000       0.36420000       0.94331600
   126  H          0.75140000       0.63580000       0.44331600
   127  H          0.24860000       0.13580000       0.05668400
   128  H          0.25140000       0.86420000       0.55668400
