data_CURJEE02
_symmetry_space_group_name_H-M    'P1'
_symmetry_Int_Tables_number       1
loop_
_symmetry_equiv_pos_site_id
_symmetry_equiv_pos_as_xyz
1 x,y,z
_cell_length_a                   6.6267
_cell_length_b                   23.383
_cell_length_c                   5.1966
_cell_angle_alpha                90.0
_cell_angle_beta                 90.0
_cell_angle_gamma                90.0
loop_
_atom_site_label
_atom_site_type_symbol
_atom_site_fract_x
_atom_site_fract_y
_atom_site_fract_z
     1  Cl         0.27803000       0.58036700       0.79633000
     2  Cl         0.72197000       0.41963300       0.79633000
     3  Cl         0.22197000       0.08036700       0.20367000
     4  Cl         0.77803000       0.91963300       0.20367000
     5  N          0.01047000       0.58095170       0.28459000
     6  N         -0.01047000       0.41904830       0.28459000
     7  N          0.48953000       0.08095170       0.71541000
     8  N          0.51047000       0.91904830       0.71541000
     9  H          0.11800000       0.58210000       0.17890000
    10  H          0.88200000       0.41790000       0.17890000
    11  H          0.38200000       0.08210000       0.82110000
    12  H          0.61800000       0.91790000       0.82110000
    13  H          0.05660000       0.58520000       0.44630000
    14  H          0.94340000       0.41480000       0.44630000
    15  H          0.44340000       0.08520000       0.55370000
    16  H          0.55660000       0.91480000       0.55370000
    17  C          0.87688000       0.63192000       0.22271400
    18  C          0.12312000       0.36808000       0.22271400
    19  C          0.62312000       0.13192000       0.77728600
    20  C          0.37688000       0.86808000       0.77728600
    21  H          0.85470000       0.63270000       0.03630000
    22  H          0.14530000       0.36730000       0.03630000
    23  H          0.64530000       0.13270000       0.96370000
    24  H          0.35470000       0.86730000       0.96370000
    25  O          0.70237000       0.62182000       0.62301100
    26  O          0.29763000       0.37818000       0.62301100
    27  O          0.79763000       0.12182000       0.37698900
    28  O          0.20237000       0.87818000       0.37698900
    29  H          0.60120000       0.60810000       0.69030000
    30  H          0.39880000       0.39190000       0.69030000
    31  H          0.89880000       0.10810000       0.30970000
    32  H          0.10120000       0.89190000       0.30970000
    33  C          0.91691000       0.52283190       0.26321400
    34  C          0.08309000       0.47716810       0.26321400
    35  C          0.58309000       0.02283190       0.73678600
    36  C          0.41691000       0.97716810       0.73678600
    37  H          0.83920000       0.52030000       0.10540000
    38  H          0.16080000       0.47970000       0.10540000
    39  H          0.66080000       0.02030000       0.89460000
    40  H          0.33920000       0.97970000       0.89460000
    41  H          0.82620000       0.51650000       0.40700000
    42  H          0.17380000       0.48350000       0.40700000
    43  H          0.67380000       0.01650000       0.59300000
    44  H          0.32620000       0.98350000       0.59300000
    45  C          0.67201100       0.62613000       0.35411600
    46  C          0.32798900       0.37387000       0.35411600
    47  C          0.82798900       0.12613000       0.64588400
    48  C          0.17201100       0.87387000       0.64588400
    49  H          0.58910000       0.65920000       0.31570000
    50  H          0.41090000       0.34080000       0.31570000
    51  H          0.91090000       0.15920000       0.68430000
    52  H          0.08910000       0.84080000       0.68430000
    53  H          0.60310000       0.59230000       0.29120000
    54  H          0.39690000       0.40770000       0.29120000
    55  H          0.89690000       0.09230000       0.70880000
    56  H          0.10310000       0.90770000       0.70880000
    57  C         -0.00521000       0.68582000       0.29761400
    58  C          0.00521000       0.31418000       0.29761400
    59  C          0.50521000       0.18582000       0.70238600
    60  C          0.49479000       0.81418000       0.70238600
    61  H          0.00410000       0.68770000       0.48370000
    62  H         -0.00410000       0.31230000       0.48370000
    63  H          0.49590000       0.18770000       0.51630000
    64  H          0.50410000       0.81230000       0.51630000
    65  H          0.13070000       0.68290000       0.23000000
    66  H          0.86930000       0.31710000       0.23000000
    67  H          0.36930000       0.18290000       0.77000000
    68  H          0.63070000       0.81710000       0.77000000
    69  C          0.89881100       0.74073000       0.19920000
    70  C          0.10118900       0.25927000       0.19920000
    71  C          0.60118900       0.24073000       0.80080000
    72  C          0.39881100       0.75927000       0.80080000
    73  H          0.77640000       0.74800000       0.29180000
    74  H          0.22360000       0.25200000       0.29180000
    75  H          0.72360000       0.24800000       0.70820000
    76  H          0.27640000       0.75200000       0.70820000
    77  H          0.86890000       0.73670000       0.01880000
    78  H          0.13110000       0.26330000       0.01880000
    79  H          0.63110000       0.23670000      -0.01880000
    80  H          0.36890000       0.76330000      -0.01880000
    81  H         -0.00930000       0.77190000       0.22300000
    82  H          0.00930000       0.22810000       0.22300000
    83  H          0.50930000       0.27190000       0.77700000
    84  H          0.49070000       0.72810000       0.77700000
