data_CURJEE01
_symmetry_space_group_name_H-M    'P1'
_symmetry_Int_Tables_number       1
loop_
_symmetry_equiv_pos_site_id
_symmetry_equiv_pos_as_xyz
1 x,y,z
_cell_length_a                   6.8454
_cell_length_b                   22.79813
_cell_length_c                   5.2103
_cell_angle_alpha                90.0
_cell_angle_beta                 90.0
_cell_angle_gamma                90.0
loop_
_atom_site_label
_atom_site_type_symbol
_atom_site_fract_x
_atom_site_fract_y
_atom_site_fract_z
     1  Cl         0.82023000       0.40054800       0.32774000
     2  Cl         0.17977000       0.59945200       0.32774000
     3  Cl         0.67977000       0.90054800       0.67226000
     4  Cl         0.32023000       0.09945200       0.67226000
     5  N          0.06768000       0.42032000       0.81861100
     6  N          0.93232000       0.57968000       0.81861100
     7  N          0.43232000       0.92032000       0.18138900
     8  N          0.56768000       0.07968000       0.18138900
     9  H          0.96870000       0.41040000       0.71340000
    10  H          0.03130000       0.58960000       0.71340000
    11  H          0.53130000       0.91040000       0.28660000
    12  H          0.46870000       0.08960000       0.28660000
    13  H          0.02980000       0.41180000      -0.02020000
    14  H          0.97020000       0.58820000      -0.02020000
    15  H          0.47020000       0.91180000       0.02020000
    16  H          0.52980000       0.08820000       0.02020000
    17  C          0.09651000       0.48473000       0.80081500
    18  C          0.90349000       0.51527000       0.80081500
    19  C          0.40349000       0.98473000       0.19918500
    20  C          0.59651000       0.01527000       0.19918500
    21  H          0.16680000       0.49400000       0.64440000
    22  H          0.83320000       0.50600000       0.64440000
    23  H          0.33320000      -0.00600000       0.35560000
    24  H          0.66680000       0.00600000       0.35560000
    25  H          0.17400000       0.49810000       0.94520000
    26  H          0.82600000       0.50190000       0.94520000
    27  H          0.32600000      -0.00190000       0.05480000
    28  H          0.67400000       0.00190000       0.05480000
    29  C          0.24161100       0.38203000       0.75341400
    30  C          0.75838900       0.61797000       0.75341400
    31  C          0.25838900       0.88203000       0.24658600
    32  C          0.74161100       0.11797000       0.24658600
    33  H          0.26280000       0.38580000       0.56810000
    34  H          0.73720000       0.61420000       0.56810000
    35  H          0.23720000       0.88580000       0.43190000
    36  H          0.76280000       0.11420000       0.43190000
    37  C          0.18401800       0.31913000       0.80230000
    38  C          0.81598200       0.68087000       0.80230000
    39  C          0.31598200       0.81913000       0.19770000
    40  C          0.68401800       0.18087000       0.19770000
    41  H          0.05770000       0.31180000       0.72350000
    42  H          0.94230000       0.68820000       0.72350000
    43  H          0.44230000       0.81180000       0.27650000
    44  H          0.55770000       0.18820000       0.27650000
    45  H          0.17100000       0.31290000      -0.01500000
    46  H          0.82900000       0.68710000      -0.01500000
    47  H          0.32900000       0.81290000       0.01500000
    48  H          0.67100000       0.18710000       0.01500000
    49  O          0.39301000       0.40924000       0.14661300
    50  O          0.60699000       0.59076000       0.14661300
    51  O          0.10699000       0.90924000       0.85338700
    52  O          0.89301000       0.09076000       0.85338700
    53  H          0.34320000       0.37890000       0.20120000
    54  H          0.65680000       0.62110000       0.20120000
    55  H          0.15680000       0.87890000       0.79880000
    56  H          0.84320000       0.12110000       0.79880000
    57  C          0.42411300       0.40394000       0.88191600
    58  C          0.57588700       0.59606000       0.88191600
    59  C          0.07588700       0.90394000       0.11808400
    60  C          0.92411300       0.09606000       0.11808400
    61  H          0.53070000       0.37680000       0.85010000
    62  H          0.46930000       0.62320000       0.85010000
    63  H          0.96930000       0.87680000       0.14990000
    64  H          0.03070000       0.12320000       0.14990000
    65  H          0.45990000       0.44180000       0.81120000
    66  H          0.54010000       0.55820000       0.81120000
    67  H          0.04010000       0.94180000       0.18880000
    68  H          0.95990000       0.05820000       0.18880000
    69  C          0.33120000       0.27575000       0.69530000
    70  C          0.66880000       0.72425000       0.69530000
    71  C          0.16880000       0.77575000       0.30470000
    72  C          0.83120000       0.22425000       0.30470000
    73  H          0.37880000       0.28960000       0.53240000
    74  H          0.62120000       0.71040000       0.53240000
    75  H          0.12120000       0.78960000       0.46760000
    76  H          0.87880000       0.21040000       0.46760000
    77  H          0.27010000       0.23820000       0.67250000
    78  H          0.72990000       0.76180000       0.67250000
    79  H          0.22990000       0.73820000       0.32750000
    80  H          0.77010000       0.26180000       0.32750000
    81  H          0.43880000       0.27200000       0.81240000
    82  H          0.56120000       0.72800000       0.81240000
    83  H          0.06120000       0.77200000       0.18760000
    84  H          0.93880000       0.22800000       0.18760000
