data_CURJEE
_symmetry_space_group_name_H-M    'P1'
_symmetry_Int_Tables_number       1
loop_
_symmetry_equiv_pos_site_id
_symmetry_equiv_pos_as_xyz
1 x,y,z
_cell_length_a                   23.18322
_cell_length_b                   6.5555
_cell_length_c                   5.1765
_cell_angle_alpha                90.0
_cell_angle_beta                 90.0
_cell_angle_gamma                90.0
loop_
_atom_site_label
_atom_site_type_symbol
_atom_site_fract_x
_atom_site_fract_y
_atom_site_fract_z
     1  O          0.37881000       0.79784000       0.12266000
     2  O          0.87881000       0.70216000       0.87734000
     3  O          0.12119000       0.29784000       0.87734000
     4  O          0.62119000       0.20216000       0.12266000
     5  N          0.41911000       0.48784000       0.78404000
     6  N          0.91911000       0.01216000       0.21596000
     7  N          0.08089000      -0.01216000       0.21596000
     8  N          0.58089000       0.51216000       0.78404000
     9  C          0.37362000       0.82936000       0.85362000
    10  C          0.87362000       0.67064000       0.14638000
    11  C          0.12638000       0.32936000       0.14638000
    12  C          0.62638000       0.17064000       0.85362000
    13  C          0.36852000       0.62356000       0.72051000
    14  C          0.86852000       0.87644000       0.27949000
    15  C          0.13148000       0.12356000       0.27949000
    16  C          0.63148000       0.37644000       0.72051000
    17  C          0.31432000       0.50387000       0.79989000
    18  C          0.81432000      -0.00387000       0.20011000
    19  C          0.18568000       0.00387000       0.20011000
    20  C          0.68568000       0.49613000       0.79989000
    21  C          0.25912000       0.60358000       0.69218500
    22  C          0.75912000       0.89642000       0.30781500
    23  C          0.24088000       0.10358000       0.30781500
    24  C          0.74088000       0.39642000       0.69218500
    25  C          0.47771000       0.58576000       0.76131000
    26  C          0.97771000       0.91424000       0.23869000
    27  C          0.02229000       0.08576000       0.23869000
    28  C          0.52229000       0.41424000       0.76131000
    29  H          0.39020000       0.90570000       0.17911000
    30  H          0.89020000       0.59430000       0.82089000
    31  H          0.10980000       0.40570000       0.82089000
    32  H          0.60980000       0.09430000       0.17911000
    33  H          0.41110000       0.90150000       0.80330000
    34  H          0.91110000       0.59850000       0.19670000
    35  H          0.08890000       0.40150000       0.19670000
    36  H          0.58890000       0.09850000       0.80330000
    37  H          0.33720000       0.91160000       0.81110000
    38  H          0.83720000       0.58840000       0.18890000
    39  H          0.16280000       0.41160000       0.18890000
    40  H          0.66280000       0.08840000       0.81110000
    41  H          0.36910000       0.65750000       0.50220000
    42  H          0.86910000       0.84250000       0.49780000
    43  H          0.13090000       0.15750000       0.49780000
    44  H          0.63090000       0.34250000       0.50220000
    45  H          0.31620000       0.36290000       0.69888000
    46  H          0.81620000       0.13710000       0.30112000
    47  H          0.18380000       0.86290000       0.30112000
    48  H          0.68380000       0.63710000       0.69888000
    49  H          0.31120000       0.49770000       0.03310000
    50  H          0.81120000       0.00230000       0.96690000
    51  H          0.18880000      -0.00230000       0.96690000
    52  H          0.68880000       0.50230000       0.03310000
    53  H          0.25420000       0.74790000       0.80189000
    54  H          0.75420000       0.75210000       0.19811000
    55  H          0.24580000       0.24790000       0.19811000
    56  H          0.74580000       0.25210000       0.80189000
    57  H          0.26620000       0.62080000       0.47286000
    58  H          0.76620000       0.87920000       0.52714000
    59  H          0.23380000       0.12080000       0.52714000
    60  H          0.73380000       0.37920000       0.47286000
    61  H          0.22620000       0.50990000       0.72986000
    62  H          0.72620000      -0.00990000       0.27014000
    63  H          0.27380000       0.00990000       0.27014000
    64  H          0.77380000       0.49010000       0.72986000
    65  H          0.42020000       0.41760000      -0.00590000
    66  H          0.92020000       0.08240000       0.00590000
    67  H          0.07980000       0.91760000       0.00590000
    68  H          0.57980000       0.58240000      -0.00590000
    69  H          0.41920000       0.37170000       0.60510000
    70  H          0.91920000       0.12830000       0.39490000
    71  H          0.08080000       0.87170000       0.39490000
    72  H          0.58080000       0.62830000       0.60510000
    73  H          0.48420000       0.68870000       0.94220000
    74  H          0.98420000       0.81130000       0.05780000
    75  H          0.01580000       0.18870000       0.05780000
    76  H          0.51580000       0.31130000       0.94220000
    77  H          0.47910000       0.65960000       0.55320000
    78  H          0.97910000       0.84040000       0.44680000
    79  H          0.02090000       0.15960000       0.44680000
    80  H          0.52090000       0.34040000       0.55320000
    81  H          0.68420000       0.63890000       0.69888000
    82  H          0.18420000       0.86110000       0.30112000
    83  H          0.81580000       0.13890000       0.30112000
    84  H          0.31580000       0.36110000       0.69888000
    85  H          0.74620000       0.25390000       0.80189000
    86  H          0.24620000       0.24610000       0.19811000
    87  H          0.75380000       0.75390000       0.19811000
    88  H          0.25380000       0.74610000       0.80189000
    89  H          0.73420000       0.38080000       0.47286000
    90  H          0.23420000       0.11920000       0.52714000
    91  H          0.76580000       0.88080000       0.52714000
    92  H          0.26580000       0.61920000       0.47286000
    93  H          0.77420000       0.49190000       0.72986000
    94  H          0.27420000       0.00810000       0.27014000
    95  H          0.72580000      -0.00810000       0.27014000
    96  H          0.22580000       0.50810000       0.72986000
    97  Cl         0.41971000       0.22212000       0.29668000
    98  Cl         0.91971000       0.27788000       0.70332000
    99  Cl         0.08029000       0.72212000       0.70332000
   100  Cl         0.58029000       0.77788000       0.29668000
