data_CUXKAK03
_symmetry_space_group_name_H-M    'P1'
_symmetry_Int_Tables_number       1
loop_
_symmetry_equiv_pos_site_id
_symmetry_equiv_pos_as_xyz
1 x,y,z
_cell_length_a                   16.8313
_cell_length_b                   4.99717
_cell_length_c                   22.8503
_cell_angle_alpha                90.0
_cell_angle_beta                 90.0
_cell_angle_gamma                90.0
loop_
_atom_site_label
_atom_site_type_symbol
_atom_site_fract_x
_atom_site_fract_y
_atom_site_fract_z
     1  O          0.33448700       0.21492000       0.44813500
     2  O          0.16551300       0.78508000       0.94813500
     3  O          0.66551300       0.71492000       0.05186500
     4  O          0.83448700       0.28508000       0.55186500
     5  O          0.66551300       0.78508000       0.55186500
     6  O          0.83448700       0.21492000       0.05186500
     7  O          0.33448700       0.28508000       0.94813500
     8  O          0.16551300       0.71492000       0.44813500
     9  N          0.34243800       0.65223000       0.47280600
    10  N          0.15756200       0.34777000       0.97280600
    11  N          0.65756200       0.15223000       0.02719400
    12  N          0.84243800       0.84777000       0.52719400
    13  N          0.65756200       0.34777000       0.52719400
    14  N          0.84243800       0.65223000       0.02719400
    15  N          0.34243800       0.84777000       0.97280600
    16  N          0.15756200       0.15223000       0.47280600
    17  N          0.31697800       0.61293000       0.53101600
    18  N          0.18302200       0.38707000       0.03101600
    19  N          0.68302200       0.11293000       0.96898400
    20  N          0.81697800       0.88707000       0.46898400
    21  N          0.68302200       0.38707000       0.46898400
    22  N          0.81697800       0.61293000       0.96898400
    23  N          0.31697800       0.88707000       0.03101600
    24  N          0.18302200       0.11293000       0.53101600
    25  C          0.34663900       0.45023000       0.43465700
    26  C          0.15336100       0.54977000       0.93465700
    27  C          0.65336100       0.95023000       0.06534300
    28  C          0.84663900       0.04977000       0.56534300
    29  C          0.65336100       0.54977000       0.56534300
    30  C          0.84663900       0.45023000       0.06534300
    31  C          0.34663900       0.04977000       0.93465700
    32  C          0.15336100       0.95023000       0.43465700
    33  C          0.38444100       0.53813000       0.56928700
    34  C          0.11555900       0.46187000       0.06928700
    35  C          0.61555900       0.03813000       0.93071300
    36  C          0.88444100       0.96187000       0.43071300
    37  C          0.61555900       0.46187000       0.43071300
    38  C          0.88444100       0.53813000       0.93071300
    39  C          0.38444100       0.96187000       0.06928700
    40  C          0.11555900       0.03813000       0.56928700
    41  H          0.41412200       0.38555400       0.55127500
    42  H          0.08587800       0.61444600       0.05127500
    43  H          0.58587800       0.88555400       0.94872500
    44  H          0.91412200       0.11444600       0.44872500
    45  H          0.58587800       0.61444600       0.44872500
    46  H          0.91412200       0.38555400       0.94872500
    47  H          0.41412200       0.11444600       0.05127500
    48  H          0.08587800       0.88555400       0.55127500
    49  N          0.40141120       0.64894000       0.25663700
    50  N          0.09858880       0.35106000       0.75663700
    51  N          0.59858880       0.14894000       0.24336300
    52  N          0.90141120       0.85106000       0.74336300
    53  N          0.59858880       0.35106000       0.74336300
    54  N          0.90141120       0.64894000       0.24336300
    55  N          0.40141120       0.85106000       0.75663700
    56  N          0.09858880       0.14894000       0.25663700
    57  C          0.36584100       0.52683000       0.37295700
    58  C          0.13415900       0.47317000       0.87295700
    59  C          0.63415900       0.02683000       0.12704300
    60  C          0.86584100      -0.02683000       0.62704300
    61  C          0.63415900       0.47317000       0.62704300
    62  C          0.86584100       0.52683000       0.12704300
    63  C          0.36584100      -0.02683000       0.87295700
    64  C          0.13415900       0.02683000       0.37295700
    65  C          0.41639110       0.73553000       0.35893800
    66  C          0.08360890       0.26447000       0.85893800
    67  C          0.58360890       0.23553000       0.14106200
    68  C          0.91639110       0.76447000       0.64106200
    69  C          0.58360890       0.26447000       0.64106200
    70  C          0.91639110       0.73553000       0.14106200
    71  C          0.41639110       0.76447000       0.85893800
    72  C          0.08360890       0.23553000       0.35893800
    73  H          0.43935200       0.84239200       0.38887200
    74  H          0.06064800       0.15760800       0.88887200
    75  H          0.56064800       0.34239200       0.11112800
    76  H          0.93935200       0.65760800       0.61112800
    77  H          0.56064800       0.15760800       0.61112800
    78  H          0.93935200       0.84239200       0.11112800
    79  H          0.43935200       0.65760800       0.88887200
    80  H          0.06064800       0.34239200       0.38887200
    81  C          0.33370110       0.38084000       0.32772800
    82  C          0.16629890       0.61916000       0.82772800
    83  C          0.66629890       0.88084000       0.17227200
    84  C          0.83370110       0.11916000       0.67227200
    85  C          0.66629890       0.61916000       0.67227200
    86  C          0.83370110       0.38084000       0.17227200
    87  C          0.33370110       0.11916000       0.82772800
    88  C          0.16629890       0.88084000       0.32772800
    89  H          0.29932800       0.23424200       0.33549700
    90  H          0.20067200       0.76575800       0.83549700
    91  H          0.70067200       0.73424200       0.16450300
    92  H          0.79932800       0.26575800       0.66450300
    93  H          0.70067200       0.76575800       0.66450300
    94  H          0.79932800       0.23424200       0.16450300
    95  H          0.29932800       0.26575800       0.83549700
    96  H          0.20067200       0.73424200       0.33549700
    97  C          0.43983110       0.77574000       0.57624800
    98  C          0.06016890       0.22426000       0.07624800
    99  C          0.56016890       0.27574000       0.92375200
   100  C          0.93983110       0.72426000       0.42375200
   101  C          0.56016890       0.22426000       0.42375200
   102  C          0.93983110       0.77574000       0.92375200
   103  C          0.43983110       0.72426000       0.07624800
   104  C          0.06016890       0.27574000       0.57624800
   105  H          0.46070400       0.82754900       0.53783900
   106  H          0.03929600       0.17245100       0.03783900
   107  H          0.53929600       0.32754900       0.96216100
   108  H          0.96070400       0.67245100       0.46216100
   109  H          0.53929600       0.17245100       0.46216100
   110  H          0.96070400       0.82754900       0.96216100
   111  H          0.46070400       0.67245100       0.03783900
   112  H          0.03929600       0.32754900       0.53783900
   113  H          0.48398600       0.72661900       0.60205700
   114  H          0.01601400       0.27338100       0.10205700
   115  H          0.51601400       0.22661900       0.89794300
   116  H          0.98398600       0.77338100       0.39794300
   117  H          0.51601400       0.27338100       0.39794300
   118  H          0.98398600       0.72661900       0.89794300
   119  H          0.48398600       0.77338100       0.10205700
   120  H          0.01601400       0.22661900       0.60205700
   121  H          0.41057400       0.92618200       0.59330600
   122  H          0.08942600       0.07381800       0.09330600
   123  H          0.58942600       0.42618200       0.90669400
   124  H          0.91057400       0.57381800       0.40669400
   125  H          0.58942600       0.07381800       0.40669400
   126  H          0.91057400       0.92618200       0.90669400
   127  H          0.41057400       0.57381800       0.09330600
   128  H          0.08942600       0.42618200       0.59330600
   129  C          0.35048110       0.45154000       0.62741800
   130  C          0.14951890       0.54846000       0.12741800
   131  C          0.64951890       0.95154000       0.87258200
   132  C          0.85048110       0.04846000       0.37258200
   133  C          0.64951890       0.54846000       0.37258200
   134  C          0.85048110       0.45154000       0.87258200
   135  C          0.35048110       0.04846000       0.12741800
   136  C          0.14951890       0.95154000       0.62741800
   137  H          0.32258100       0.60228300       0.64556800
   138  H          0.17741900       0.39771700       0.14556800
   139  H          0.67741900       0.10228300       0.85443200
   140  H          0.82258100       0.89771700       0.35443200
   141  H          0.67741900       0.39771700       0.35443200
   142  H          0.82258100       0.60228300       0.85443200
   143  H          0.32258100       0.89771700       0.14556800
   144  H          0.17741900       0.10228300       0.64556800
   145  H          0.39364400       0.39232700       0.65312500
   146  H          0.10635600       0.60767300       0.15312500
   147  H          0.60635600       0.89232700       0.84687500
   148  H          0.89364400       0.10767300       0.34687500
   149  H          0.60635600       0.60767300       0.34687500
   150  H          0.89364400       0.39232700       0.84687500
   151  H          0.39364400       0.10767300       0.15312500
   152  H          0.10635600       0.89232700       0.65312500
   153  H          0.31315500       0.30357200       0.62128800
   154  H          0.18684500       0.69642800       0.12128800
   155  H          0.68684500       0.80357200       0.87871200
   156  H          0.81315500       0.19642800       0.37871200
   157  H          0.68684500       0.69642800       0.37871200
   158  H          0.81315500       0.30357200       0.87871200
   159  H          0.31315500       0.19642800       0.12128800
   160  H          0.18684500       0.80357200       0.62128800
   161  C          0.43292130       0.78624000       0.30099900
   162  C          0.06707870       0.21376000       0.80099900
   163  C          0.56707870       0.28624000       0.19900100
   164  C          0.93292130       0.71376000       0.69900100
   165  C          0.56707870       0.21376000       0.69900100
   166  C          0.93292130       0.78624000       0.19900100
   167  C          0.43292130       0.71376000       0.80099900
   168  C          0.06707870       0.28624000       0.30099900
   169  H          0.46884400       0.92704900       0.29207000
   170  H          0.03115600       0.07295100       0.79207000
   171  H          0.53115600       0.42704900       0.20793000
   172  H          0.96884400       0.57295100       0.70793000
   173  H          0.53115600       0.07295100       0.70793000
   174  H          0.96884400       0.92704900       0.20793000
   175  H          0.46884400       0.57295100       0.79207000
   176  H          0.03115600       0.42704900       0.29207000
   177  C          0.35213140       0.45035000       0.27098900
   178  C          0.14786860       0.54965000       0.77098900
   179  C          0.64786860       0.95035000       0.22901100
   180  C          0.85213140       0.04965000       0.72901100
   181  C          0.64786860       0.54965000       0.72901100
   182  C          0.85213140       0.45035000       0.22901100
   183  C          0.35213140       0.04965000       0.77098900
   184  C          0.14786860       0.95035000       0.27098900
   185  H          0.32830800       0.35080100       0.24020500
   186  H          0.17169200       0.64919900       0.74020500
   187  H          0.67169200       0.85080100       0.25979500
   188  H          0.82830800       0.14919900       0.75979500
   189  H          0.67169200       0.64919900       0.75979500
   190  H          0.82830800       0.35080100       0.25979500
   191  H          0.32830800       0.14919900       0.74020500
   192  H          0.17169200       0.85080100       0.24020500
   193  H          0.34301000       0.81540000       0.46108000
   194  H          0.15699000       0.18460000       0.96108000
   195  H          0.65699000       0.31540000       0.03892000
   196  H          0.84301000       0.68460000       0.53892000
   197  H          0.65699000       0.18460000       0.53892000
   198  H          0.84301000       0.81540000       0.03892000
   199  H          0.34301000       0.68460000       0.96108000
   200  H          0.15699000       0.31540000       0.46108000
   201  H          0.28361100       0.46440000       0.52928000
   202  H          0.21638900       0.53560000       0.02928000
   203  H          0.71638900       0.96440000       0.97072000
   204  H          0.78361100       0.03560000       0.47072000
   205  H          0.71638900       0.53560000       0.47072000
   206  H          0.78361100       0.46440000       0.97072000
   207  H          0.28361100       0.03560000       0.02928000
   208  H          0.21638900       0.96440000       0.52928000
