data_CUXKAK01
_symmetry_space_group_name_H-M    'P1'
_symmetry_Int_Tables_number       1
loop_
_symmetry_equiv_pos_site_id
_symmetry_equiv_pos_as_xyz
1 x,y,z
_cell_length_a                   8.14408
_cell_length_b                   5.09665
_cell_length_c                   11.720713
_cell_angle_alpha                90.0
_cell_angle_beta                 107.1224
_cell_angle_gamma                90.0
loop_
_atom_site_label
_atom_site_type_symbol
_atom_site_fract_x
_atom_site_fract_y
_atom_site_fract_z
     1  O          0.46392000       0.80923000       0.20230140
     2  O          0.53608000       0.30923000       0.79769860
     3  N          0.49062000       0.37143000       0.18008160
     4  N          0.50938000       0.87143000       0.81991840
     5  N          0.57702000       0.39594000       0.09199160
     6  N          0.42298000       0.89594000       0.90800840
     7  N          0.16412000       0.46424000       0.48673170
     8  N          0.83588000       0.96424000       0.51326830
     9  C          0.43843000       0.58174000       0.22864170
    10  C          0.56157000       0.08174000       0.77135830
    11  C          0.37673000       0.31574000       0.39523190
    12  C          0.62327000       0.81574000       0.60476810
    13  H          0.46116800       0.18923300       0.39255800
    14  H          0.53883200       0.68923300       0.60744200
    15  C          0.21483000       0.70354000       0.32408190
    16  C          0.78517000       0.20354000       0.67591810
    17  H          0.18709700       0.84943700       0.27146500
    18  H          0.81290300       0.34943700       0.72853500
    19  C          0.13013000       0.66435000       0.40892000
    20  C          0.86987000       0.16435000       0.59108000
    21  H          0.04310100       0.78553200       0.41227200
    22  H          0.95689900       0.28553200       0.58772800
    23  C          0.28523000       0.29465000       0.47792000
    24  C          0.71477000       0.79465000       0.52208000
    25  H          0.31016100       0.15043400       0.53159100
    26  H          0.68983900       0.65043400       0.46840900
    27  C          0.34153000       0.52604000       0.31678170
    28  C          0.65847000       0.02604000       0.68321830
    29  C          0.76393000       0.43794000       0.14705190
    30  C          0.23607000       0.93794000       0.85294810
    31  H          0.78185900       0.58487300       0.20595800
    32  H          0.21814100       0.08487300       0.79404200
    33  C          0.84013000       0.51255000       0.04812000
    34  C          0.15987000       0.01255000       0.95188000
    35  H          0.81857200       0.37176900      -0.01145100
    36  H          0.18142800       0.87176900       0.01145100
    37  H          0.96424100       0.53883300       0.08166200
    38  H          0.03575900       0.03883300       0.91833800
    39  H          0.78679400       0.67520500       0.01012000
    40  H          0.21320600       0.17520500      -0.01012000
    41  C          0.84563000       0.19085000       0.21042000
    42  C          0.15437000       0.69085000       0.78958000
    43  H          0.79088300       0.14418100       0.27179100
    44  H          0.20911700       0.64418100       0.72820900
    45  H          0.96851000       0.22094200       0.24799300
    46  H          0.03149000       0.72094200       0.75200700
    47  H          0.83017000       0.04728300       0.15259900
    48  H          0.16983000       0.54728300       0.84740100
    49  H          0.52730000       0.53650000       0.04620000
    50  H          0.47270000       0.03650000       0.95380000
    51  H          0.46830000       0.21070000       0.19420000
    52  H          0.53170000       0.71070000       0.80580000
