data_CUXKAK
_symmetry_space_group_name_H-M    'P1'
_symmetry_Int_Tables_number       1
loop_
_symmetry_equiv_pos_site_id
_symmetry_equiv_pos_as_xyz
1 x,y,z
_cell_length_a                   11.9572
_cell_length_b                   5.15389
_cell_length_c                   15.8833
_cell_angle_alpha                90.0
_cell_angle_beta                 105.5478
_cell_angle_gamma                90.0
loop_
_atom_site_label
_atom_site_type_symbol
_atom_site_fract_x
_atom_site_fract_y
_atom_site_fract_z
     1  O          0.79341200       0.43140000       0.76208000
     2  O          0.20658800       0.93140000       0.73792000
     3  O          0.20658800       0.56860000       0.23792000
     4  O          0.79341200       0.06860000       0.26208000
     5  N          0.81951100       0.86040000       0.75648000
     6  N          0.18048900       0.36040000       0.74352000
     7  N          0.18048900       0.13960000       0.24352000
     8  N          0.81951100       0.63960000       0.25648000
     9  H          0.79975900       0.01385600       0.76806900
    10  H          0.20024100       0.51385600       0.73193100
    11  H          0.20024100      -0.01385600       0.23193100
    12  H          0.79975900       0.48614400       0.26806900
    13  N          0.90961100       0.83240000       0.71358000
    14  N          0.09038900       0.33240000       0.78642000
    15  N          0.09038900       0.16760000       0.28642000
    16  N          0.90961100       0.66760000       0.21358000
    17  H          0.95411000       0.67114000       0.73630000
    18  H          0.04589000       0.17114000       0.76370000
    19  H          0.04589000       0.32886000       0.26370000
    20  H          0.95411000       0.82886000       0.23630000
    21  C          0.67957000       0.70330000       0.82946000
    22  C          0.32043000       0.20330000       0.67054000
    23  C          0.32043000       0.29670000       0.17054000
    24  C          0.67957000       0.79670000       0.32946000
    25  C          0.68608000       0.91320000       0.88547000
    26  C          0.31392000       0.41320000       0.61453000
    27  C          0.31392000       0.08680000       0.11453000
    28  C          0.68608000       0.58680000       0.38547000
    29  H          0.74520300       0.03405800       0.89141900
    30  H          0.25479700       0.53405800       0.60858100
    31  H          0.25479700       0.96594200       0.10858100
    32  H          0.74520300       0.46594200       0.39141900
    33  C          0.60421000       0.94120000       0.93257000
    34  C          0.39579000       0.44120000       0.56743000
    35  C          0.39579000       0.05880000       0.06743000
    36  C          0.60421000       0.55880000       0.43257000
    37  H          0.60856700       0.08164200       0.97004100
    38  H          0.39143300       0.58164200       0.52995900
    39  H          0.39143300       0.91835800       0.02995900
    40  H          0.60856700       0.41835800       0.47004100
    41  N          0.51577000       0.76020000       0.92366000
    42  N          0.48423000       0.26020000       0.57634000
    43  N          0.48423000       0.23980000       0.07634000
    44  N          0.51577000       0.73980000       0.42366000
    45  C          0.50929000       0.55020000       0.86758000
    46  C          0.49071000       0.05020000       0.63242000
    47  C          0.49071000       0.44980000       0.13242000
    48  C          0.50929000       0.94980000       0.36758000
    49  H          0.44999500       0.42841700       0.86154100
    50  H          0.55000500       0.92841700       0.63845900
    51  H          0.55000500       0.57158300       0.13845900
    52  H          0.44999500       0.07158300       0.36154100
    53  C          0.59101000       0.52120000       0.82047000
    54  C          0.40899000       0.02120000       0.67953000
    55  C          0.40899000       0.47880000       0.17953000
    56  C          0.59101000      -0.02120000       0.32047000
    57  H          0.58663100       0.38082900       0.78291900
    58  H          0.41336900       0.88082900       0.71708100
    59  H          0.41336900       0.61917100       0.21708100
    60  H          0.58663100       0.11917100       0.28291900
    61  C          0.76520000       0.65770000       0.77891400
    62  C          0.23480000       0.15770000       0.72108600
    63  C          0.23480000       0.34230000       0.22108600
    64  C          0.76520000       0.84230000       0.27891400
    65  C          0.86241400       0.79750000       0.61831000
    66  C          0.13758600       0.29750000       0.88169000
    67  C          0.13758600       0.20250000       0.38169000
    68  C          0.86241400       0.70250000       0.11831000
    69  H          0.80439500       0.65819100       0.60534600
    70  H          0.19560500       0.15819100       0.89465400
    71  H          0.19560500       0.34180900       0.39465400
    72  H          0.80439500       0.84180900       0.10534600
    73  C          0.95931100       0.74040000       0.58039000
    74  C          0.04068900       0.24040000       0.91961000
    75  C          0.04068900       0.25960000       0.41961000
    76  C          0.95931100       0.75960000       0.08039000
    77  H          0.01974200       0.86580200       0.60034900
    78  H          0.98025800       0.36580200       0.89965100
    79  H          0.98025800       0.13419800       0.39965100
    80  H          0.01974200       0.63419800       0.10034900
    81  H          0.93228100       0.74661400       0.51772100
    82  H          0.06771900       0.24661400       0.98227900
    83  H          0.06771900       0.25338600       0.48227900
    84  H          0.93228100       0.75338600       0.01772100
    85  H         -0.01090600       0.56968600       0.59809100
    86  H          0.01090600       0.06968600       0.90190900
    87  H          0.01090600       0.43031400       0.40190900
    88  H         -0.01090600       0.93031400       0.09809100
    89  C          0.80551600       0.07250000       0.57961200
    90  C          0.19448400       0.57250000       0.92038800
    91  C          0.19448400       0.92750000       0.42038800
    92  C          0.80551600       0.42750000       0.07961200
    93  H          0.73763100       0.10447000       0.59932000
    94  H          0.26236900       0.60447000       0.90068000
    95  H          0.26236900       0.89553000       0.40068000
    96  H          0.73763100       0.39553000       0.09932000
    97  H          0.78436100       0.06640900       0.51687600
    98  H          0.21563900       0.56640900       0.98312400
    99  H          0.21563900       0.93359100       0.48312400
   100  H          0.78436100       0.43359100       0.01687600
   101  H          0.86089600       0.20875100       0.59960400
   102  H          0.13910400       0.70875100       0.90039600
   103  H          0.13910400       0.79124900       0.40039600
   104  H          0.86089600       0.29124900       0.09960400
