data_CYACAC
_symmetry_space_group_name_H-M    'P1'
_symmetry_Int_Tables_number       1
loop_
_symmetry_equiv_pos_site_id
_symmetry_equiv_pos_as_xyz
1 x,y,z
_cell_length_a                   5.5363
_cell_length_b                   7.7933
_cell_length_c                   9.9363
_cell_angle_alpha                86.244
_cell_angle_beta                 84.893
_cell_angle_gamma                69.772
loop_
_atom_site_label
_atom_site_type_symbol
_atom_site_fract_x
_atom_site_fract_y
_atom_site_fract_z
     1  N          0.66320000       0.63850000       0.78370000
     2  N          0.33680000       0.36150000       0.21630000
     3  C          0.16680000       0.66090000       0.56240000
     4  C          0.83320000       0.33910000       0.43760000
     5  C          0.91550000       0.79430000       0.61670000
     6  C          0.08450000       0.20570000       0.38330000
     7  C          0.77460000       0.70610000       0.71110000
     8  C          0.22540000       0.29390000       0.28890000
     9  O          0.28480000       0.73760000       0.47100000
    10  O          0.71520000       0.26240000       0.52900000
    11  O          0.24800000       0.50230000       0.60120000
    12  O          0.75200000       0.49770000       0.39880000
    13  H          0.94900000       0.90400000       0.64400000
    14  H          0.05100000       0.09600000       0.35600000
    15  H          0.81400000       0.83800000       0.53200000
    16  H          0.18600000       0.16200000       0.46800000
    17  H          0.42800000       0.65200000       0.45300000
    18  H          0.57200000       0.34800000       0.54700000
    19  N          0.70760000       0.94350000       0.30950000
    20  N          0.29240000       0.05650000       0.69050000
    21  C          0.12780000       0.75960000       0.03620000
    22  C          0.87220000       0.24040000       0.96380000
    23  C          0.87010000       0.75780000       0.09480000
    24  C          0.12990000       0.24220000       0.90520000
    25  C          0.77710000       0.86470000       0.21530000
    26  C          0.22290000       0.13530000       0.78470000
    27  O          0.20390000       0.65320000       0.93060000
    28  O          0.79610000       0.34680000       0.06940000
    29  O          0.24620000       0.84660000       0.07640000
    30  O          0.75380000       0.15340000       0.92360000
    31  H          0.75900000       0.80400000       0.03900000
    32  H          0.24100000       0.19600000       0.96100000
    33  H          0.87800000       0.63000000       0.11700000
    34  H          0.12200000       0.37000000       0.88300000
    35  H          0.33400000       0.64800000       0.90600000
    36  H          0.66600000       0.35200000       0.09400000
