data_CYACAC01
_symmetry_space_group_name_H-M    'P1'
_symmetry_Int_Tables_number       1
loop_
_symmetry_equiv_pos_site_id
_symmetry_equiv_pos_as_xyz
1 x,y,z
_cell_length_a                   11.6296
_cell_length_b                   7.7613
_cell_length_c                   13.7583
_cell_angle_alpha                90.0
_cell_angle_beta                 108.923
_cell_angle_gamma                90.0
loop_
_atom_site_label
_atom_site_type_symbol
_atom_site_fract_x
_atom_site_fract_y
_atom_site_fract_z
     1  N          0.49200000       0.76180000       0.98370000
     2  N          0.50800000       0.26180000       0.51630000
     3  N          0.50800000       0.23820000       0.01630000
     4  N          0.49200000       0.73820000       0.48370000
     5  C          0.41740000       0.65460000       0.22690000
     6  C          0.58260000       0.15460000       0.27310000
     7  C          0.58260000       0.34540000       0.77310000
     8  C          0.41740000       0.84540000       0.72690000
     9  C          0.46020000       0.56990000       0.14610000
    10  C          0.53980000       0.06990000       0.35390000
    11  C          0.53980000       0.43010000       0.85390000
    12  C          0.46020000       0.93010000       0.64610000
    13  C          0.44130000       0.67890000       0.05560000
    14  C          0.55870000       0.17890000       0.44440000
    15  C          0.55870000       0.32110000       0.94440000
    16  C          0.44130000       0.82110000       0.55560000
    17  O          0.46540000       0.57140000       0.31610000
    18  O          0.53460000       0.07140000       0.18390000
    19  O          0.53460000       0.42860000       0.68390000
    20  O          0.46540000       0.92860000       0.81610000
    21  O          0.34890000       0.77540000       0.21250000
    22  O          0.65110000       0.27540000       0.28750000
    23  O          0.65110000       0.22460000       0.78750000
    24  O          0.34890000       0.72460000       0.71250000
    25  H          0.54200000       0.53600000       0.17500000
    26  H          0.45800000       0.03600000       0.32500000
    27  H          0.45800000       0.46400000       0.82500000
    28  H          0.54200000       0.96400000       0.67500000
    29  H          0.41100000       0.47300000       0.12200000
    30  H          0.58900000       0.97300000       0.37800000
    31  H          0.58900000       0.52700000       0.87800000
    32  H          0.41100000       0.02700000       0.62200000
    33  H          0.43700000       0.61500000       0.35700000
    34  H          0.56300000       0.11500000       0.14300000
    35  H          0.56300000       0.38500000       0.64300000
    36  H          0.43700000       0.88500000       0.85700000
    37  N          0.26830000       0.23780000       0.69910000
    38  N          0.73170000       0.73780000       0.80090000
    39  N          0.73170000       0.76220000       0.30090000
    40  N          0.26830000       0.26220000       0.19910000
    41  C          0.25480000       0.32250000       0.44830000
    42  C          0.74520000       0.82250000       0.05170000
    43  C          0.74520000       0.67750000       0.55170000
    44  C          0.25480000       0.17750000       0.94830000
    45  C          0.23060000       0.42370000       0.53320000
    46  C          0.76940000       0.92370000       0.96680000
    47  C          0.76940000       0.57630000       0.46680000
    48  C          0.23060000       0.07630000       0.03320000
    49  C          0.25090000       0.31900000       0.62590000
    50  C          0.74910000       0.81900000       0.87410000
    51  C          0.74910000       0.68100000       0.37410000
    52  C          0.25090000       0.18100000       0.12590000
    53  O          0.24590000       0.42780000       0.36950000
    54  O          0.75410000       0.92780000       0.13050000
    55  O          0.75410000       0.57220000       0.63050000
    56  O          0.24590000       0.07220000       0.86950000
    57  O          0.27800000       0.17010000       0.45170000
    58  O          0.72200000       0.67010000       0.04830000
    59  O          0.72200000       0.82990000       0.54830000
    60  O          0.27800000       0.32990000       0.95170000
    61  H          0.15200000       0.46500000       0.51400000
    62  H          0.84800000       0.96500000       0.98600000
    63  H          0.84800000       0.53500000       0.48600000
    64  H          0.15200000       0.03500000       0.01400000
    65  H          0.28500000       0.52000000       0.55200000
    66  H          0.71500000       0.02000000       0.94800000
    67  H          0.71500000       0.48000000       0.44800000
    68  H          0.28500000       0.98000000       0.05200000
    69  H          0.26300000       0.37600000       0.32900000
    70  H          0.73700000       0.87600000       0.17100000
    71  H          0.73700000       0.62400000       0.67100000
    72  H          0.26300000       0.12400000       0.82900000
    73  N          0.03490000       0.96430000       0.14500000
    74  N          0.96510000       0.46430000       0.35500000
    75  N          0.96510000       0.03570000       0.85500000
    76  N          0.03490000       0.53570000       0.64500000
    77  C          0.07020000       0.90840000       0.40210000
    78  C          0.92980000       0.40840000       0.09790000
    79  C          0.92980000       0.09160000       0.59790000
    80  C          0.07020000       0.59160000       0.90210000
    81  C          0.12710000       0.83440000       0.32770000
    82  C          0.87290000       0.33440000       0.17230000
    83  C          0.87290000       0.16560000       0.67230000
    84  C          0.12710000       0.66560000       0.82770000
    85  C          0.07590000       0.90700000       0.22510000
    86  C          0.92410000       0.40700000       0.27490000
    87  C          0.92410000       0.09300000       0.77490000
    88  C          0.07590000       0.59300000       0.72510000
    89  O          0.11850000       0.84160000       0.49420000
    90  O          0.88150000       0.34160000       0.00580000
    91  O          0.88150000       0.15840000       0.50580000
    92  O          0.11850000       0.65840000      -0.00580000
    93  O         -0.01050000       0.01620000       0.37880000
    94  O          0.01050000       0.51620000       0.12120000
    95  O          0.01050000      -0.01620000       0.62120000
    96  O         -0.01050000       0.48380000       0.87880000
    97  H          0.11400000       0.70700000       0.32600000
    98  H          0.88600000       0.20700000       0.17400000
    99  H          0.88600000       0.29300000       0.67400000
   100  H          0.11400000       0.79300000       0.82600000
   101  H          0.20100000       0.85300000       0.35000000
   102  H          0.79900000       0.35300000       0.15000000
   103  H          0.79900000       0.14700000       0.65000000
   104  H          0.20100000       0.64700000       0.85000000
   105  H          0.08500000       0.87400000       0.52900000
   106  H          0.91500000       0.37400000       0.97100000
   107  H          0.91500000       0.12600000       0.47100000
   108  H          0.08500000       0.62600000       0.02900000
