data_CYACAC02
_symmetry_space_group_name_H-M    'P1'
_symmetry_Int_Tables_number       1
loop_
_symmetry_equiv_pos_site_id
_symmetry_equiv_pos_as_xyz
1 x,y,z
_cell_length_a                   7.2974
_cell_length_b                   6.0453
_cell_length_c                   8.3544
_cell_angle_alpha                90.0
_cell_angle_beta                 90.0
_cell_angle_gamma                90.0
loop_
_atom_site_label
_atom_site_type_symbol
_atom_site_fract_x
_atom_site_fract_y
_atom_site_fract_z
     1  C          0.10712140       0.25000000       0.62204140
     2  C          0.39287860       0.75000000       0.12204140
     3  C          0.60712140       0.25000000       0.87795860
     4  C          0.89287860       0.75000000       0.37795860
     5  C          0.25648160       0.25000000       0.49774140
     6  C          0.24351840       0.75000000      -0.00225860
     7  C          0.75648160       0.25000000       0.00225860
     8  C          0.74351840       0.75000000       0.50225860
     9  H          0.33281600       0.37951600       0.51364600
    10  H          0.16718400       0.62048400       0.01364600
    11  H          0.83281600       0.12048400      -0.01364600
    12  H          0.66718400       0.87951600       0.48635400
    13  H          0.66718400       0.62048400       0.48635400
    14  H          0.83281600       0.37951600      -0.01364600
    15  H          0.16718400       0.87951600       0.01364600
    16  H          0.33281600       0.12048400       0.51364600
    17  C          0.18960160       0.25000000       0.33317150
    18  C          0.31039840       0.75000000       0.83317150
    19  C          0.68960160       0.25000000       0.16682850
    20  C          0.81039840       0.75000000       0.66682850
    21  N          0.13515170       0.25000000       0.20574140
    22  N          0.36484830       0.75000000       0.70574140
    23  N          0.63515170       0.25000000       0.29425860
    24  N          0.86484830       0.75000000       0.79425860
    25  O          0.14048110       0.25000000       0.76382100
    26  O          0.35951890       0.75000000       0.26382100
    27  O          0.64048110       0.25000000       0.73617900
    28  O          0.85951890       0.75000000       0.23617900
    29  O          0.94177890       0.25000000       0.56261110
    30  O          0.55822110       0.75000000       0.06261110
    31  O          0.44177890       0.25000000       0.93738890
    32  O          0.05822110       0.75000000       0.43738890
    33  H          0.85270000       0.25000000       0.63720000
    34  H          0.64730000       0.75000000       0.13720000
    35  H          0.35270000       0.25000000       0.86280000
    36  H          0.14730000       0.75000000       0.36280000
