data_DADDER
_symmetry_space_group_name_H-M    'P1'
_symmetry_Int_Tables_number       1
loop_
_symmetry_equiv_pos_site_id
_symmetry_equiv_pos_as_xyz
1 x,y,z
_cell_length_a                   15.1662
_cell_length_b                   8.0022
_cell_length_c                   19.0132
_cell_angle_alpha                90.0
_cell_angle_beta                 103.641
_cell_angle_gamma                90.0
loop_
_atom_site_label
_atom_site_type_symbol
_atom_site_fract_x
_atom_site_fract_y
_atom_site_fract_z
     1  C          0.19052000       0.38094000       0.26112000
     2  C          0.30948000       0.88094000       0.23888000
     3  C          0.80948000       0.61906000       0.73888000
     4  C          0.69052000       0.11906000       0.76112000
     5  C          0.26532000       0.45134000       0.30982000
     6  C          0.23468000       0.95134000       0.19018000
     7  C          0.73468000       0.54866000       0.69018000
     8  C          0.76532000       0.04866000       0.80982000
     9  C          0.28032000       0.42255000       0.38362000
    10  C          0.21968000       0.92255000       0.11638000
    11  C          0.71968000       0.57745000       0.61638000
    12  C          0.78032000       0.07745000       0.88362000
    13  C          0.22023000       0.32425000       0.41032000
    14  C          0.27977000       0.82425000       0.08968000
    15  C          0.77977000       0.67575000       0.58968000
    16  C          0.72023000       0.17575000       0.91032000
    17  C          0.14472000       0.25655000       0.36312000
    18  C          0.35528000       0.75655000       0.13688000
    19  C          0.85528000       0.74345000       0.63688000
    20  C          0.64472000       0.24345000       0.86312000
    21  C          0.12932000       0.28465000       0.28922000
    22  C          0.37068000       0.78465000       0.21078000
    23  C          0.87068000       0.71535000       0.71078000
    24  C          0.62932000       0.21535000       0.78922000
    25  C          0.18322000       0.40774000       0.18402000
    26  C          0.31678000       0.90774000       0.31598000
    27  C          0.81678000       0.59226000       0.81598000
    28  C          0.68322000       0.09226000       0.68402000
    29  C          0.12272000       0.34924000       0.12672000
    30  C          0.37728000       0.84924000       0.37328000
    31  C          0.87728000       0.65076000       0.87328000
    32  C          0.62272000       0.15076000       0.62672000
    33  C         -0.00472000       0.21455000       0.06362000
    34  C          0.50472000       0.71455000       0.43638000
    35  C          0.00472000       0.78545000       0.93638000
    36  C          0.49528000       0.28545000       0.56362000
    37  C          0.04142000       0.28655000       0.01142000
    38  C          0.45858000       0.78655000       0.48858000
    39  C          0.95858000       0.71345000       0.98858000
    40  C          0.54142000       0.21345000       0.51142000
    41  C          0.01783000       0.28275000       0.93638000
    42  C          0.48217000       0.78275000       0.56362000
    43  C          0.98217000       0.71725000       0.06362000
    44  C          0.51783000       0.21725000       0.43638000
    45  C          0.07673000       0.35865000       0.90038000
    46  C          0.42327000       0.85865000       0.59962000
    47  C          0.92327000       0.64135000       0.09962000
    48  C          0.57673000       0.14135000       0.40038000
    49  C          0.15633000       0.43495000       0.93888000
    50  C          0.34367000       0.93495000       0.56112000
    51  C          0.84367000       0.56505000       0.06112000
    52  C          0.65633000       0.06505000       0.43888000
    53  C          0.17902000       0.43965000       0.01362000
    54  C          0.32098000       0.93965000       0.48638000
    55  C          0.82098000       0.56035000       0.98638000
    56  C          0.67902000       0.06035000       0.51362000
    57  C          0.11932000       0.36534000       0.04972000
    58  C          0.38068000       0.86534000       0.45028000
    59  C          0.88068000       0.63466000       0.95028000
    60  C          0.61932000       0.13466000       0.54972000
    61  O          0.04691000       0.25333000       0.13281000
    62  O          0.45309000       0.75333000       0.36719000
    63  O          0.95309000       0.74667000       0.86719000
    64  O          0.54691000       0.24667000       0.63281000
    65  O          0.92688000       0.13294000       0.05681000
    66  O          0.57312000       0.63294000       0.44319000
    67  O          0.07312000       0.86706000       0.94319000
    68  O          0.42688000       0.36706000       0.55681000
    69  H          0.31130000       0.33040000       0.28940000
    70  H          0.18870000       0.83040000       0.21060000
    71  H          0.68870000       0.66960000       0.71060000
    72  H          0.81130000       0.16960000       0.78940000
    73  H          0.33950000       0.47370000       0.42030000
    74  H          0.16050000       0.97370000       0.07970000
    75  H          0.66050000       0.52630000       0.57970000
    76  H          0.83950000       0.02630000       0.92030000
    77  H          0.23180000       0.30060000       0.46760000
    78  H          0.26820000       0.80060000       0.03240000
    79  H          0.76820000       0.69940000       0.53240000
    80  H          0.73180000       0.19940000       0.96760000
    81  H          0.09710000       0.18180000       0.38410000
    82  H          0.40290000       0.68180000       0.11590000
    83  H          0.90290000       0.81820000       0.61590000
    84  H          0.59710000       0.31820000       0.88410000
    85  H          0.07000000       0.23160000       0.25350000
    86  H          0.43000000       0.73160000       0.24650000
    87  H          0.93000000       0.76840000       0.74650000
    88  H          0.57000000       0.26840000       0.75350000
    89  H          0.23490000       0.48670000       0.17130000
    90  H          0.26510000      -0.01330000       0.32870000
    91  H          0.76510000       0.51330000       0.82870000
    92  H          0.73490000       0.01330000       0.67130000
    93  H          0.95590000       0.22300000       0.90730000
    94  H          0.54410000       0.72300000       0.59270000
    95  H          0.04410000       0.77700000       0.09270000
    96  H          0.45590000       0.27700000       0.40730000
    97  H          0.06030000       0.35960000       0.84690000
    98  H          0.43970000       0.85960000       0.65310000
    99  H          0.93970000       0.64040000       0.15310000
   100  H          0.56030000       0.14040000       0.34690000
   101  H          0.20310000       0.48880000       0.91000000
   102  H          0.29690000      -0.01120000       0.59000000
   103  H          0.79690000       0.51120000       0.09000000
   104  H          0.70310000       0.01120000       0.41000000
   105  H          0.24030000       0.50080000       0.04300000
   106  H          0.25970000       0.00080000       0.45700000
   107  H          0.75970000       0.49920000       0.95700000
   108  H          0.74030000      -0.00080000       0.54300000
   109  C          0.84562000       0.43705000       0.40632000
   110  C          0.65438000       0.93705000       0.09368000
   111  C          0.15438000       0.56295000       0.59368000
   112  C          0.34562000       0.06295000       0.90632000
   113  C          0.76762000       0.53295000       0.38252000
   114  C          0.73238000       0.03295000       0.11748000
   115  C          0.23238000       0.46705000       0.61748000
   116  C          0.26762000       0.96705000       0.88252000
   117  C          0.74913000       0.60335000       0.31382000
   118  C          0.75087000       0.10335000       0.18618000
   119  C          0.25087000       0.39665000       0.68618000
   120  C          0.24913000       0.89665000       0.81382000
   121  C          0.80583000       0.57855000       0.26832000
   122  C          0.69417000       0.07855000       0.23168000
   123  C          0.19417000       0.42145000       0.73168000
   124  C          0.30583000       0.92145000       0.76832000
   125  C          0.88193000       0.48165000       0.29152000
   126  C          0.61807000       0.98165000       0.20848000
   127  C          0.11807000       0.51835000       0.70848000
   128  C          0.38193000       0.01835000       0.79152000
   129  C          0.90292000       0.41005000       0.35992000
   130  C          0.59708000       0.91005000       0.14008000
   131  C          0.09708000       0.58995000       0.64008000
   132  C          0.40292000       0.08995000       0.85992000
   133  C          0.86412000       0.37205000       0.48082000
   134  C          0.63588000       0.87205000       0.01918000
   135  C          0.13588000       0.62795000       0.51918000
   136  C          0.36412000       0.12795000       0.98082000
   137  C          0.93342000       0.28624000       0.51922000
   138  C          0.56658000       0.78624000       0.98078000
   139  C          0.06658000       0.71376000       0.48078000
   140  C          0.43342000       0.21376000       0.01922000
   141  C          0.06962000       0.14404000       0.54442000
   142  C          0.43038000       0.64404000       0.95558000
   143  C          0.93038000       0.85596000       0.45558000
   144  C          0.56962000       0.35596000       0.04442000
   145  C          0.03302000       0.13944000       0.60912000
   146  C          0.46698000       0.63944000       0.89088000
   147  C          0.96698000       0.86056000       0.39088000
   148  C          0.53302000       0.36056000       0.10912000
   149  C          0.06942000       0.06745000       0.67582000
   150  C          0.43058000       0.56745000       0.82418000
   151  C          0.93058000       0.93255000       0.32418000
   152  C          0.56942000       0.43255000       0.17582000
   153  C          0.02143000       0.08785000       0.72882000
   154  C          0.47857000       0.58785000       0.77118000
   155  C          0.97857000       0.91215000       0.27118000
   156  C          0.52143000       0.41215000       0.22882000
   157  C          0.94093000       0.17965000       0.71522000
   158  C          0.55907000       0.67965000       0.78478000
   159  C          0.05907000       0.82035000       0.28478000
   160  C          0.44093000       0.32035000       0.21522000
   161  C          0.90402000       0.24875000       0.64742000
   162  C          0.59598000       0.74875000       0.85258000
   163  C          0.09598000       0.75125000       0.35258000
   164  C          0.40402000       0.25125000       0.14742000
   165  C          0.95192000       0.22704000       0.59382000
   166  C          0.54808000       0.72704000       0.90618000
   167  C          0.04808000       0.77296000       0.40618000
   168  C          0.45192000       0.27296000       0.09382000
   169  O          0.00752000       0.23323000       0.49161000
   170  O          0.49248000       0.73323000       0.00839000
   171  O         -0.00752000       0.76677000       0.50839000
   172  O          0.50752000       0.26677000       0.99161000
   173  O          0.13742000       0.08863000       0.53151000
   174  O          0.36258000       0.58863000       0.96849000
   175  O          0.86258000       0.91137000       0.46849000
   176  O          0.63742000       0.41137000       0.03151000
   177  H          0.72150000       0.55310000       0.41760000
   178  H          0.77850000       0.05310000       0.08240000
   179  H          0.27850000       0.44690000       0.58240000
   180  H          0.22150000       0.94690000       0.91760000
   181  H          0.68870000       0.67920000       0.29610000
   182  H          0.81130000       0.17920000       0.20390000
   183  H          0.31130000       0.32080000       0.70390000
   184  H          0.18870000       0.82080000       0.79610000
   185  H          0.79070000       0.63500000       0.21540000
   186  H          0.70930000       0.13500000       0.28460000
   187  H          0.20930000       0.36500000       0.78460000
   188  H          0.29070000       0.86500000       0.71540000
   189  H          0.92580000       0.45910000       0.25500000
   190  H          0.57420000       0.95910000       0.24500000
   191  H          0.07420000       0.54090000       0.74500000
   192  H          0.42580000       0.04090000       0.75500000
   193  H          0.96280000       0.33360000       0.37700000
   194  H          0.53720000       0.83360000       0.12300000
   195  H          0.03720000       0.66640000       0.62300000
   196  H          0.46280000       0.16640000       0.87700000
   197  H          0.81200000       0.40030000       0.50940000
   198  H          0.68800000       0.90030000       0.99060000
   199  H          0.18800000       0.59970000       0.49060000
   200  H          0.31200000       0.09970000       0.00940000
   201  H          0.13240000      -0.00240000       0.68600000
   202  H          0.36760000       0.49760000       0.81400000
   203  H          0.86760000       0.00240000       0.31400000
   204  H          0.63240000       0.50240000       0.18600000
   205  H          0.04700000       0.03160000       0.78150000
   206  H          0.45300000       0.53160000       0.71850000
   207  H          0.95300000       0.96840000       0.21850000
   208  H          0.54700000       0.46840000       0.28150000
   209  H          0.90690000       0.19860000       0.75870000
   210  H          0.59310000       0.69860000       0.74130000
   211  H          0.09310000       0.80140000       0.24130000
   212  H          0.40690000       0.30140000       0.25870000
   213  H          0.84050000       0.31650000       0.63660000
   214  H          0.65950000       0.81650000       0.86340000
   215  H          0.15950000       0.68350000       0.36340000
   216  H          0.34050000       0.18350000       0.13660000
