data_DADDER04
_symmetry_space_group_name_H-M    'P1'
_symmetry_Int_Tables_number       1
loop_
_symmetry_equiv_pos_site_id
_symmetry_equiv_pos_as_xyz
1 x,y,z
_cell_length_a                   7.36338
_cell_length_b                   14.665818
_cell_length_c                   10.533312
_cell_angle_alpha                90.0
_cell_angle_beta                 96.8572
_cell_angle_gamma                90.0
loop_
_atom_site_label
_atom_site_type_symbol
_atom_site_fract_x
_atom_site_fract_y
_atom_site_fract_z
     1  C          0.20774000       0.10272000       0.61903000
     2  C          0.79226000       0.60272000       0.38097000
     3  C          0.06934000       0.08912000       0.70373000
     4  C          0.93066000       0.58912000       0.29627000
     5  C          0.89506000       0.05182000       0.68553000
     6  C          0.10494000       0.55182000       0.31447000
     7  H          0.84710000       0.02900000       0.60610000
     8  H          0.15290000       0.52900000       0.39390000
     9  C          0.79515000       0.04952000       0.78754000
    10  C          0.20485000       0.54952000       0.21246000
    11  H          0.67780000       0.02510000       0.77690000
    12  H          0.32220000       0.52510000       0.22310000
    13  C          0.86675000       0.08283000       0.90573000
    14  C          0.13325000       0.58283000       0.09427000
    15  H          0.79630000       0.08040000       0.97330000
    16  H          0.20370000       0.58040000       0.02670000
    17  C          0.03795000       0.11902000       0.92573000
    18  C          0.96205000       0.61902000       0.07427000
    19  H          0.08530000       0.14150000       0.00530000
    20  H          0.91470000       0.64150000      -0.00530000
    21  C          0.13794000       0.12102000       0.82363000
    22  C          0.86206000       0.62102000       0.17637000
    23  C          0.32094000       0.15622000       0.81463000
    24  C          0.67906000       0.65622000       0.18537000
    25  C          0.20724000       0.07962000       0.49613000
    26  C          0.79276000       0.57962000       0.50387000
    27  H          0.09930000       0.05280000       0.45890000
    28  H          0.90070000       0.55280000       0.54110000
    29  C          0.34765000       0.08932000       0.41163000
    30  C          0.65235000       0.58932000       0.58837000
    31  C          0.31225000       0.05443000       0.28814000
    32  C          0.68775000       0.55443000       0.71186000
    33  H          0.19980000       0.02710000       0.26240000
    34  H          0.80020000       0.52710000       0.73760000
    35  C          0.44016000       0.05973000       0.20354000
    36  C          0.55984000       0.55973000       0.79646000
    37  H          0.41400000       0.03590000       0.12150000
    38  H          0.58600000       0.53590000       0.87850000
    39  C          0.60676000       0.10023000       0.24014000
    40  C          0.39324000       0.60023000       0.75986000
    41  H          0.69270000       0.10470000       0.18250000
    42  H          0.30730000       0.60470000       0.81750000
    43  C          0.64515000       0.13342000       0.36083000
    44  C          0.35485000       0.63342000       0.63917000
    45  H          0.75830000       0.16030000       0.38540000
    46  H          0.24170000       0.66030000       0.61460000
    47  C          0.51964000       0.12792000       0.44703000
    48  C          0.48036000       0.62792000       0.55297000
    49  H          0.54930000       0.15010000       0.52960000
    50  H          0.45070000       0.65010000       0.47040000
    51  O          0.35863000       0.14345150       0.68893190
    52  O          0.64137000       0.64345150       0.31106810
    53  O          0.43303000       0.19232000       0.89092000
    54  O          0.56697000       0.69232000       0.10908000
    55  C          0.10494000       0.27722000       0.27253000
    56  C          0.89506000       0.77722000       0.72747000
    57  C          0.28854000       0.31112000       0.26403000
    58  C          0.71146000       0.81112000       0.73597000
    59  C          0.39165000       0.31002000       0.16243000
    60  C          0.60835000       0.81002000       0.83757000
    61  H          0.34630000       0.28460000       0.08400000
    62  H          0.65370000       0.78460000       0.91600000
    63  C          0.56295000       0.34763000       0.18154000
    64  C          0.43705000       0.84763000       0.81846000
    65  H          0.63500000       0.34880000       0.11480000
    66  H          0.36500000       0.84880000       0.88520000
    67  C          0.62965000       0.38362000       0.29824000
    68  C          0.37035000       0.88362000       0.70176000
    69  H          0.74700000       0.40810000       0.30890000
    70  H          0.25300000       0.90810000       0.69110000
    71  C          0.52884000       0.38462000       0.39943000
    72  C          0.47116000       0.88462000       0.60057000
    73  H          0.57570000       0.40920000       0.47800000
    74  H          0.42430000       0.90920000       0.52200000
    75  C          0.35514000       0.34802000       0.38063000
    76  C          0.64486000       0.84802000       0.61937000
    77  C          0.21515000       0.33792000       0.46613000
    78  C          0.78485000       0.83792000       0.53387000
    79  C          0.21414000       0.36202000       0.58703000
    80  C          0.78586000       0.86202000       0.41297000
    81  H          0.32040000       0.39100000       0.62270000
    82  H          0.67960000       0.89100000       0.37730000
    83  C          0.07625000       0.35122000       0.67433000
    84  C          0.92375000       0.85122000       0.32567000
    85  C          0.11665000       0.37852000       0.80024000
    86  C          0.88335000       0.87852000       0.19976000
    87  H          0.22940000       0.40520000       0.82670000
    88  H          0.77060000       0.90520000       0.17330000
    89  C         -0.00796000       0.36693000       0.88693000
    90  C          0.00796000       0.86693000       0.11307000
    91  H          0.02170000       0.38600000       0.97110000
    92  H          0.97830000       0.88600000       0.02890000
    93  C          0.82644000       0.32793000       0.85054000
    94  C          0.17356000       0.82793000       0.14946000
    95  H          0.74410000       0.31940000       0.90980000
    96  H          0.25590000       0.81940000       0.09020000
    97  C          0.78135000       0.30102000       0.72623000
    98  C          0.21865000       0.80102000       0.27377000
    99  H          0.66750000       0.27520000       0.70090000
   100  H          0.33250000       0.77520000       0.29910000
   101  C          0.90455000       0.31222000       0.63843000
   102  C          0.09545000       0.81222000       0.36157000
   103  H          0.87300000       0.29350000       0.55420000
   104  H          0.12700000       0.79350000       0.44580000
   105  O          0.06563000       0.29479150       0.39589180
   106  O          0.93437000       0.79479150       0.60410820
   107  O         -0.00523000       0.24070190       0.19682000
   108  O          0.00523000       0.74070190       0.80318000
