data_DADDER01
_symmetry_space_group_name_H-M    'P1'
_symmetry_Int_Tables_number       1
loop_
_symmetry_equiv_pos_site_id
_symmetry_equiv_pos_as_xyz
1 x,y,z
_cell_length_a                   6.94689
_cell_length_b                   8.50497
_cell_length_c                   9.17998
_cell_angle_alpha                94.0297
_cell_angle_beta                 93.4509
_cell_angle_gamma                98.2399
loop_
_atom_site_label
_atom_site_type_symbol
_atom_site_fract_x
_atom_site_fract_y
_atom_site_fract_z
     1  O          0.10492170       0.88232860       0.17730120
     2  O          0.89507830       0.11767140       0.82269880
     3  O          0.40462180       0.92196850       0.29399130
     4  O          0.59537820       0.07803150       0.70600870
     5  C          0.24573000       0.96138000       0.28186180
     6  C          0.75427000       0.03862000       0.71813820
     7  C          0.15842000       0.08542000       0.36092170
     8  C          0.84158000       0.91458000       0.63907830
     9  C          0.23693000       0.19282000       0.47683180
    10  C          0.76307000       0.80718000       0.52316820
    11  H          0.36500000       0.19690000       0.51450000
    12  H          0.63500000       0.80310000       0.48550000
    13  C          0.11663000       0.29342000       0.53398180
    14  C          0.88337000       0.70658000       0.46601820
    15  H          0.16450000       0.36820000       0.61110000
    16  H          0.83550000       0.63180000       0.38890000
    17  C          0.92333000       0.28452000       0.47755180
    18  C          0.07667000       0.71548000       0.52244820
    19  H          0.84530000       0.35370000       0.51840000
    20  H          0.15470000       0.64630000       0.48160000
    21  C          0.84523000       0.17582000       0.36280170
    22  C          0.15477000       0.82418000       0.63719830
    23  H          0.71620000       0.16980000       0.32650000
    24  H          0.28380000       0.83020000       0.67350000
    25  C          0.96702000       0.07594190       0.30393160
    26  C          0.03298000       0.92405810       0.69606840
    27  C          0.93132000       0.94768000       0.18703170
    28  C          0.06868000       0.05232000       0.81296830
    29  C          0.76893000       0.89288000       0.10352170
    30  C          0.23107000       0.10712000       0.89647830
    31  H          0.66560000       0.94890000       0.11970000
    32  H          0.33440000       0.05110000       0.88030000
    33  C          0.72483000       0.76088000      -0.00850170
    34  C          0.27517000       0.23912000       0.00850170
    35  C          0.53143000       0.72148000       0.93447820
    36  C          0.46857000       0.27852000       0.06552180
    37  H          0.43870000       0.78240000       0.96610000
    38  H          0.56130000       0.21760000       0.03390000
    39  C          0.47533000       0.59358000       0.83195820
    40  C          0.52467000       0.40642000       0.16804180
    41  H          0.34570000       0.56890000       0.79560000
    42  H          0.65430000       0.43110000       0.20440000
    43  C          0.61163000       0.50248000       0.78345810
    44  C          0.38837000       0.49752000       0.21654190
    45  H          0.57430000       0.41600000       0.71490000
    46  H          0.42570000       0.58400000       0.28510000
    47  C          0.80393000       0.54068000       0.83750820
    48  C          0.19607000       0.45932000       0.16249180
    49  H          0.89580000       0.47960000       0.80460000
    50  H          0.10420000       0.52040000       0.19540000
    51  C          0.86133000       0.66838000       0.93968830
    52  C          0.13867000       0.33162000       0.06031170
    53  H         -0.00850000       0.69310000       0.97430000
    54  H          0.00850000       0.30690000       0.02570000
