data_DAKCEX
_symmetry_space_group_name_H-M    'P1'
_symmetry_Int_Tables_number       1
loop_
_symmetry_equiv_pos_site_id
_symmetry_equiv_pos_as_xyz
1 x,y,z
_cell_length_a                   12.4583
_cell_length_b                   14.6694
_cell_length_c                   4.9801
_cell_angle_alpha                90.0
_cell_angle_beta                 90.0
_cell_angle_gamma                90.0
loop_
_atom_site_label
_atom_site_type_symbol
_atom_site_fract_x
_atom_site_fract_y
_atom_site_fract_z
     1  N          0.96172000       0.73431000       0.60945000
     2  N          0.46172000       0.76569000       0.39055000
     3  N          0.03828000       0.23431000       0.89055000
     4  N          0.53828000       0.26569000       0.10945000
     5  N          0.88932000       0.72562000       0.81215000
     6  N          0.38932000       0.77438000       0.18785000
     7  N          0.11068000       0.22562000       0.68785000
     8  N          0.61068000       0.27438000       0.31215000
     9  N          0.84712000       0.80352000       0.87905000
    10  N          0.34712000       0.69648000       0.12095000
    11  N          0.15288000       0.30352000       0.62095000
    12  N          0.65288000       0.19648000       0.37905000
    13  N          0.89441000       0.86481000       0.71544000
    14  N          0.39441000       0.63519000       0.28456000
    15  N          0.10559000       0.36481000       0.78456000
    16  N          0.60559000       0.13519000       0.21544000
    17  N          0.86711000       0.95501000       0.72454000
    18  N          0.36711000       0.54499000       0.27546000
    19  N          0.13289000       0.45501000       0.77546000
    20  N          0.63289000       0.04499000       0.22454000
    21  C          0.91962000       0.00332000       0.54735000
    22  C          0.41962000       0.49668000       0.45265000
    23  C          0.08038000       0.50332000       0.95265000
    24  C          0.58038000      -0.00332000       0.04735000
    25  C         -0.00008000       0.96941000       0.36025000
    26  C          0.49992000       0.53059000       0.63975000
    27  C          0.00008000       0.46941000       0.13975000
    28  C          0.50008000       0.03059000       0.86025000
    29  C          0.02322000       0.87601000       0.36245000
    30  C          0.52322000       0.62399000       0.63755000
    31  C          0.97678000       0.37601000       0.13755000
    32  C          0.47678000       0.12399000       0.86245000
    33  C          0.96382000       0.82201000       0.55155000
    34  C          0.46382000       0.67799000       0.44845000
    35  C          0.03618000       0.32201000       0.94845000
    36  C          0.53618000       0.17799000       0.05155000
    37  C          0.05522000       0.02702000       0.18496000
    38  C          0.55522000       0.47298000       0.81504000
    39  C          0.94478000       0.52702000       0.31504000
    40  C          0.44478000       0.97298000       0.68496000
    41  C          0.13142000      -0.00888000       0.01595000
    42  C          0.63142000       0.50888000      -0.01595000
    43  C          0.86858000       0.49112000       0.48405000
    44  C          0.36858000       0.00888000       0.51595000
    45  C          0.15472000       0.89842000       0.01936000
    46  C          0.65472000       0.60158000      -0.01936000
    47  C          0.84528000       0.39842000       0.48064000
    48  C          0.34528000       0.10158000       0.51936000
    49  C          0.10182000       0.84062000       0.19006000
    50  C          0.60182000       0.65938000       0.80994000
    51  C          0.89818000       0.34062000       0.30994000
    52  C          0.39818000       0.15938000       0.69006000
    53  N          0.89982000       0.09681000       0.53295000
    54  N          0.39982000       0.40319000       0.46705000
    55  N          0.10018000       0.59681000       0.96705000
    56  N          0.60018000       0.90319000       0.03295000
    57  N          0.84232000       0.12761000       0.72095000
    58  N          0.34232000       0.37239000       0.27905000
    59  N          0.15768000       0.62761000       0.77905000
    60  N          0.65768000       0.87239000       0.22095000
    61  N          0.79462000       0.16522000       0.87395000
    62  N          0.29462000       0.33478000       0.12605000
    63  N          0.20538000       0.66522000       0.62605000
    64  N          0.70538000       0.83478000       0.37395000
    65  H          0.12020000       0.77520000       0.19750000
    66  H          0.62020000       0.72480000       0.80250000
    67  H          0.87980000       0.27520000       0.30250000
    68  H          0.37980000       0.22480000       0.69750000
    69  H          0.20920000       0.87210000       0.90040000
    70  H          0.70920000       0.62790000       0.09960000
    71  H          0.79080000       0.37210000       0.59960000
    72  H          0.29080000       0.12790000       0.40040000
    73  H          0.17020000       0.03020000       0.90340000
    74  H          0.67020000       0.46980000       0.09660000
    75  H          0.82980000       0.53020000       0.59660000
    76  H          0.32980000       0.96980000       0.40340000
    77  H          0.04220000       0.09110000       0.18650000
    78  H          0.54220000       0.40890000       0.81350000
    79  H          0.95780000       0.59110000       0.31350000
    80  H          0.45780000       0.90890000       0.68650000
