data_DAKCEX04
_symmetry_space_group_name_H-M    'P1'
_symmetry_Int_Tables_number       1
loop_
_symmetry_equiv_pos_site_id
_symmetry_equiv_pos_as_xyz
1 x,y,z
_cell_length_a                   6.165801
_cell_length_b                   17.18623
_cell_length_c                   8.81112
_cell_angle_alpha                90.0
_cell_angle_beta                 102.1641
_cell_angle_gamma                90.0
loop_
_atom_site_label
_atom_site_type_symbol
_atom_site_fract_x
_atom_site_fract_y
_atom_site_fract_z
     1  N          0.82532160       0.73064500       0.57063120
     2  N          0.17467840       0.23064500       0.92936880
     3  N          0.17467840       0.26935500       0.42936880
     4  N          0.82532160       0.76935500       0.07063120
     5  N          0.86316160       0.80807600       0.55394120
     6  N          0.13683840       0.30807600       0.94605880
     7  N          0.13683840       0.19192400       0.44605880
     8  N          0.86316160       0.69192400       0.05394120
     9  N          0.73396150       0.85141600       0.61765110
    10  N          0.26603850       0.35141600       0.88234890
    11  N          0.26603850       0.14858400       0.38234890
    12  N          0.73396150       0.64858400       0.11765110
    13  N          0.60759140       0.80093500       0.67798100
    14  N          0.39240860       0.30093500       0.82201900
    15  N          0.39240860       0.19906500       0.32201900
    16  N          0.60759140       0.69906500       0.17798100
    17  N          0.44745150       0.82562500       0.75281110
    18  N          0.55254850       0.32562500       0.74718890
    19  N          0.55254850       0.17437500       0.24718890
    20  N          0.44745150       0.67437500       0.25281110
    21  N          0.17545170       0.78502500       0.88298110
    22  N          0.82454830       0.28502500       0.61701890
    23  N          0.82454830       0.21497500       0.11701890
    24  N          0.17545170       0.71497500       0.38298110
    25  N          0.13938150       0.85630600       0.89796110
    26  N          0.86061850       0.35630600       0.60203890
    27  N          0.86061850       0.14369400       0.10203890
    28  N          0.13938150       0.64369400       0.39796110
    29  N          0.08792000       0.91691600       0.92106140
    30  N          0.91208000       0.41691600       0.57893860
    31  N          0.91208000       0.08308400       0.07893860
    32  N          0.08792000       0.58308400       0.42106140
    33  C          0.66495180       0.72728600       0.64972120
    34  C          0.33504820       0.22728600       0.85027880
    35  C          0.33504820       0.27271400       0.35027880
    36  C          0.66495180       0.77271400       0.14972120
    37  C          0.55091180       0.66438600       0.70582130
    38  C          0.44908820       0.16438600       0.79417870
    39  C          0.44908820       0.33561400       0.29417870
    40  C          0.55091180       0.83561400       0.20582130
    41  C          0.60072000       0.58573700       0.68881150
    42  C          0.39928000       0.08573700       0.81118850
    43  C          0.39928000       0.41426300       0.31118850
    44  C          0.60072000       0.91426300       0.18881150
    45  H          0.71204900       0.57140600       0.63772400
    46  H          0.28795100       0.07140600       0.86227600
    47  H          0.28795100       0.42859400       0.36227600
    48  H          0.71204900       0.92859400       0.13772400
    49  C          0.48202000       0.52991700       0.74902160
    50  C          0.51798000       0.02991700       0.75097840
    51  C          0.51798000       0.47008300       0.25097840
    52  C          0.48202000       0.97008300       0.24902160
    53  H          0.51470900       0.47758400       0.73892200
    54  H          0.48529100       0.97758400       0.76107800
    55  H          0.48529100       0.52241600       0.26107800
    56  H          0.51470900       0.02241600       0.23892200
    57  C          0.31342000       0.55078700       0.82492140
    58  C          0.68658000       0.05078700       0.67507860
    59  C          0.68658000       0.44921300       0.17507860
    60  C          0.31342000       0.94921300       0.32492140
    61  H          0.23499000       0.51218800       0.86430000
    62  H          0.76501000       0.01218800       0.63570000
    63  H          0.76501000       0.48781200       0.13570000
    64  H          0.23499000       0.98781200       0.36430000
    65  C          0.26157190       0.62812700       0.84229140
    66  C          0.73842810       0.12812700       0.65770860
    67  C          0.73842810       0.37187300       0.15770860
    68  C          0.26157190       0.87187300       0.34229140
    69  H          0.14878500       0.64167900       0.89265500
    70  H          0.85121500       0.14167900       0.60734500
    71  H          0.85121500       0.35832100       0.10734500
    72  H          0.14878500       0.85832100       0.39265500
    73  C          0.38124180       0.68571600       0.78299120
    74  C          0.61875820       0.18571600       0.71700880
    75  C          0.61875820       0.31428400       0.21700880
    76  C          0.38124180       0.81428400       0.28299120
    77  C          0.34136180       0.76838600       0.80132120
    78  C          0.65863820       0.26838600       0.69867880
    79  C          0.65863820       0.23161400       0.19867880
    80  C          0.34136180       0.73161400       0.30132120
