data_DAKCEX06
_symmetry_space_group_name_H-M    'P1'
_symmetry_Int_Tables_number       1
loop_
_symmetry_equiv_pos_site_id
_symmetry_equiv_pos_as_xyz
1 x,y,z
_cell_length_a                   8.30824
_cell_length_b                   13.88056
_cell_length_c                   8.05204
_cell_angle_alpha                90.0
_cell_angle_beta                 100.9672
_cell_angle_gamma                90.0
loop_
_atom_site_label
_atom_site_type_symbol
_atom_site_fract_x
_atom_site_fract_y
_atom_site_fract_z
     1  N          0.14493120       0.23242700       0.38921120
     2  N          0.85506880       0.73242700       0.11078880
     3  N          0.85506880       0.76757300       0.61078880
     4  N          0.14493120       0.26757300       0.88921120
     5  C          0.22746120       0.30507800       0.47172120
     6  C          0.77253880       0.80507800       0.02827880
     7  C          0.77253880       0.69492200       0.52827880
     8  C          0.22746120       0.19492200       0.97172120
     9  N          0.21564130       0.15143700       0.46543120
    10  N          0.78435870       0.65143700       0.03456880
    11  N          0.78435870       0.84856300       0.53456880
    12  N          0.21564130       0.34856300       0.96543120
    13  C          0.21480130       0.40798800       0.45785130
    14  C          0.78519870       0.90798800       0.04214870
    15  C          0.78519870       0.59201200       0.54214870
    16  C          0.21480130       0.09201200       0.95785130
    17  N          0.33649120       0.17100700       0.58917120
    18  N          0.66350880       0.67100700       0.91082880
    19  N          0.66350880       0.82899300       0.41082880
    20  N          0.33649120       0.32899300       0.08917120
    21  C          0.10335140       0.45579100       0.33254140
    22  C          0.89664860       0.95579100       0.16745860
    23  C          0.89664860       0.54420900       0.66745860
    24  C          0.10335140       0.04420900       0.83254140
    25  H          0.03471800       0.41631100       0.25031900
    26  H          0.96528200       0.91631100       0.24968100
    27  H          0.96528200       0.58368900       0.74968100
    28  H          0.03471800       0.08368900       0.75031900
    29  N          0.34512110       0.26758600       0.59386100
    30  N          0.65487890       0.76758600       0.90613900
    31  N          0.65487890       0.73241400       0.40613900
    32  N          0.34512110       0.23241400       0.09386100
    33  C          0.09985150       0.55499100       0.33286160
    34  C          0.90014850       0.05499100       0.16713840
    35  C          0.90014850       0.44500900       0.66713840
    36  C          0.09985150       0.94500900       0.83286160
    37  H          0.02420000       0.58831200       0.24820000
    38  H          0.97580000       0.08831200       0.25180000
    39  H          0.97580000       0.41168800       0.75180000
    40  H          0.02420000       0.91168800       0.74820000
    41  N          0.45457100       0.31426600       0.71446110
    42  N          0.54542900       0.81426600       0.78553890
    43  N          0.54542900       0.68573400       0.28553890
    44  N          0.45457100       0.18573400       0.21446110
    45  C          0.20575160       0.60784900       0.45556160
    46  C          0.79424840       0.10784900       0.04443840
    47  C          0.79424840       0.39215100       0.54443840
    48  C          0.20575160       0.89215100       0.95556160
    49  H          0.20311900       0.67691200       0.45481900
    50  H          0.79688100       0.17691200       0.04518100
    51  H          0.79688100       0.32308800       0.54518100
    52  H          0.20311900       0.82308800       0.95481900
    53  N          0.54051120       0.46425700       0.82422120
    54  N          0.45948880       0.96425700       0.67577880
    55  N          0.45948880       0.53574300       0.17577880
    56  N          0.54051120       0.03574300       0.32422120
    57  C          0.31752140       0.56180800       0.57864150
    58  C          0.68247860       0.06180800       0.92135850
    59  C          0.68247860       0.43819200       0.42135850
    60  C          0.31752140       0.93819200       0.07864150
    61  H          0.39311900       0.59871100       0.66320000
    62  H          0.60688100       0.09871100       0.83680000
    63  H          0.60688100       0.40128900       0.33680000
    64  H          0.39311900       0.90128900       0.16320000
    65  N          0.64348120       0.41754800       0.92815120
    66  N          0.35651880       0.91754800       0.57184880
    67  N          0.35651880       0.58245200       0.07184880
    68  N          0.64348120       0.08245200       0.42815120
    69  C          0.32277130       0.46081800       0.58074130
    70  C          0.67722870       0.96081800       0.91925870
    71  C          0.67722870       0.53918200       0.41925870
    72  C          0.32277130       0.03918200       0.08074130
    73  N          0.74191140       0.38594900       0.02792140
    74  N          0.25808860       0.88594900       0.47207860
    75  N          0.25808860       0.61405100       0.97207860
    76  N          0.74191140       0.11405100       0.52792140
    77  C          0.43874130       0.40736800       0.70532130
    78  C          0.56125870       0.90736800       0.79467870
    79  C          0.56125870       0.59263200       0.29467870
    80  C          0.43874130       0.09263200       0.20532130
