data_DAKCEX05
_symmetry_space_group_name_H-M    'P1'
_symmetry_Int_Tables_number       1
loop_
_symmetry_equiv_pos_site_id
_symmetry_equiv_pos_as_xyz
1 x,y,z
_cell_length_a                   7.47962
_cell_length_b                   5.134501
_cell_length_c                   11.99583
_cell_angle_alpha                90.0
_cell_angle_beta                 104.15501
_cell_angle_gamma                90.0
loop_
_atom_site_label
_atom_site_type_symbol
_atom_site_fract_x
_atom_site_fract_y
_atom_site_fract_z
     1  N         -0.00342000       0.32446000       0.81638860
     2  N          0.00342000       0.82446000       0.18361140
     3  N          0.02022000       0.11746000       0.74992850
     4  N         -0.02022000       0.61746000       0.25007150
     5  N          0.86848000       0.05536000       0.67502860
     6  N          0.13152000       0.55536000       0.32497140
     7  N          0.74138000       0.22647000       0.69285880
     8  N          0.25862000       0.72647000       0.30714120
     9  N          0.56368000       0.22067000       0.62911880
    10  N          0.43632000       0.72067000       0.37088120
    11  N          0.27358000       0.41127000       0.60406870
    12  N          0.72642000       0.91127000       0.39593130
    13  N          0.21608000       0.21926000       0.54025870
    14  N          0.78392000       0.71926000       0.45974130
    15  N          0.14487000       0.05866000       0.48221840
    16  N          0.85513000       0.55866000       0.51778160
    17  C          0.82058000       0.38946000       0.77946860
    18  C          0.17942000       0.88946000       0.22053140
    19  C          0.70698000       0.58406000       0.81382860
    20  C          0.29302000       0.08406000       0.18617140
    21  C          0.77137000       0.75816000       0.90464850
    22  C          0.22863000       0.25816000       0.09535150
    23  H          0.89403900       0.75474900       0.94595300
    24  H          0.10596100       0.25474900       0.05404700
    25  C          0.64927000       0.93546000       0.93183840
    26  C          0.35073000       0.43546000       0.06816160
    27  H          0.69060700       0.05262300      -0.00823700
    28  H          0.30939300       0.55262300       0.00823700
    29  C          0.46487000       0.94076000       0.87044840
    30  C          0.53513000       0.44076000       0.12955160
    31  H          0.38500300       0.06192600       0.88973500
    32  H          0.61499700       0.56192600       0.11026500
    33  C          0.39967000       0.76836000       0.78140850
    34  C          0.60033000       0.26836000       0.21859150
    35  H          0.27641700       0.77237100       0.74126600
    36  H          0.72358300       0.27237100       0.25873400
    37  C          0.52087000       0.58736000       0.75206850
    38  C          0.47913000       0.08736000       0.24793150
    39  C          0.46037000       0.39786000       0.66011860
    40  C          0.53963000       0.89786000       0.33988140
