data_DALGON
_symmetry_space_group_name_H-M    'P1'
_symmetry_Int_Tables_number       1
loop_
_symmetry_equiv_pos_site_id
_symmetry_equiv_pos_as_xyz
1 x,y,z
_cell_length_a                   4.37915
_cell_length_b                   9.215811
_cell_length_c                   26.6813
_cell_angle_alpha                90.0
_cell_angle_beta                 92.7482
_cell_angle_gamma                90.0
loop_
_atom_site_label
_atom_site_type_symbol
_atom_site_fract_x
_atom_site_fract_y
_atom_site_fract_z
     1  O          0.45475000       0.23782000       0.09217700
     2  O          0.54525000       0.73782000       0.40782300
     3  O          0.54525000       0.76218000       0.90782300
     4  O          0.45475000       0.26218000       0.59217700
     5  H          0.42150000       0.15310000       0.08290000
     6  H          0.57850000       0.65310000       0.41710000
     7  H          0.57850000       0.84690000       0.91710000
     8  H          0.42150000       0.34690000       0.58290000
     9  O          0.61006000       0.47941190       0.45358700
    10  O          0.38994000       0.97941190       0.04641300
    11  O          0.38994000       0.52058810       0.54641300
    12  O          0.61006000       0.02058810       0.95358700
    13  H          0.57080000       0.47700000       0.48370000
    14  H          0.42920000       0.97700000       0.01630000
    15  H          0.42920000       0.52300000       0.51630000
    16  H          0.57080000       0.02300000       0.98370000
    17  O          0.28414000       0.10177190       0.51153600
    18  O          0.71586000       0.60177190       0.98846400
    19  O          0.71586000       0.89822810       0.48846400
    20  O          0.28414000       0.39822810       0.01153600
    21  H          0.41180000       0.04470000       0.50070000
    22  H          0.58820000       0.54470000      -0.00070000
    23  H          0.58820000       0.95530000       0.49930000
    24  H          0.41180000       0.45530000       0.00070000
    25  C          0.37776000       0.25313000       0.14162900
    26  C          0.62224000       0.75313000       0.35837100
    27  C          0.62224000       0.74687000       0.85837100
    28  C          0.37776000       0.24687000       0.64162900
    29  C          0.19106000       0.36443000       0.15521110
    30  C          0.80894000       0.86443000       0.34478890
    31  C          0.80894000       0.63557000       0.84478890
    32  C          0.19106000       0.13557000       0.65521110
    33  H          0.11400000       0.43080000       0.13100000
    34  H          0.88600000       0.93080000       0.36900000
    35  H          0.88600000       0.56920000       0.86900000
    36  H          0.11400000       0.06920000       0.63100000
    37  C          0.11776000       0.37783000       0.20443100
    38  C          0.88224000       0.87783000       0.29556900
    39  C          0.88224000       0.62217000       0.79556900
    40  C          0.11776000       0.12217000       0.70443100
    41  H         -0.00920000       0.45470000       0.21350000
    42  H          0.00920000       0.95470000       0.28650000
    43  H          0.00920000       0.54530000       0.78650000
    44  H         -0.00920000       0.04530000       0.71350000
    45  C          0.22515000       0.28103000       0.24149900
    46  C          0.77485000       0.78103000       0.25850100
    47  C          0.77485000       0.71897000       0.75850100
    48  C          0.22515000       0.21897000       0.74149900
    49  C          0.41596000       0.16963000       0.22628900
    50  C          0.58404000       0.66963000       0.27371100
    51  C          0.58404000       0.83037000       0.77371100
    52  C          0.41596000       0.33037000       0.72628900
    53  H          0.49400000       0.10240000       0.25010000
    54  H          0.50600000       0.60240000       0.24990000
    55  H          0.50600000       0.89760000       0.74990000
    56  H          0.49400000       0.39760000       0.75010000
    57  C          0.49176000       0.15643000       0.17715900
    58  C          0.50824000       0.65643000       0.32284100
    59  C          0.50824000       0.84357000       0.82284100
    60  C          0.49176000       0.34357000       0.67715900
    61  H          0.62180000       0.08100000       0.16770000
    62  H          0.37820000       0.58100000       0.33230000
    63  H          0.37820000       0.91900000       0.83230000
    64  H          0.62180000       0.41900000       0.66770000
    65  C          0.13105000       0.29943000       0.29284900
    66  C          0.86895000       0.79943000       0.20715100
    67  C          0.86895000       0.70057000       0.70715100
    68  C          0.13105000       0.20057000       0.79284900
    69  H         -0.01850000       0.37070000       0.29750000
    70  H          0.01850000       0.87070000       0.20250000
    71  H          0.01850000       0.62930000       0.70250000
    72  H         -0.01850000       0.12930000       0.79750000
    73  C          0.22935000       0.22833000       0.33401900
    74  C          0.77065000       0.72833000       0.16598100
    75  C          0.77065000       0.77167000       0.66598100
    76  C          0.22935000       0.27167000       0.83401900
    77  H          0.37950000       0.15690000       0.33000000
    78  H          0.62050000       0.65690000       0.17000000
    79  H          0.62050000       0.84310000       0.67000000
    80  H          0.37950000       0.34310000       0.83000000
    81  C          0.12665000       0.25023000       0.38503900
    82  C          0.87335000       0.75023000       0.11496100
    83  C          0.87335000       0.74977000       0.61496100
    84  C          0.12665000       0.24977000       0.88503900
    85  C          0.91455000       0.35763000       0.39617900
    86  C          0.08545000       0.85763000       0.10382100
    87  C          0.08545000       0.64237000       0.60382100
    88  C          0.91455000       0.14237000       0.89617900
    89  H          0.83290000       0.41800000       0.37050000
    90  H          0.16710000       0.91800000       0.12950000
    91  H          0.16710000       0.58200000       0.62950000
    92  H          0.83290000       0.08200000       0.87050000
    93  C          0.82575000       0.37513000       0.44419900
    94  C          0.17425000       0.87513000       0.05580100
    95  C          0.17425000       0.62487000       0.55580100
    96  C          0.82575000       0.12487000       0.94419900
    97  C          0.94445000       0.28893000       0.48326900
    98  C          0.05555000       0.78893000       0.01673100
    99  C          0.05555000       0.71107000       0.51673100
   100  C          0.94445000       0.21107000       0.98326900
   101  H          0.88210000       0.30150000       0.51620000
   102  H          0.11790000       0.80150000       0.98380000
   103  H          0.11790000       0.69850000       0.48380000
   104  H          0.88210000       0.19850000       0.01620000
   105  C          0.15725000       0.18433000       0.47211900
   106  C          0.84275000       0.68433000       0.02788100
   107  C          0.84275000       0.81567000       0.52788100
   108  C          0.15725000       0.31567000       0.97211900
   109  C          0.24725000       0.16293000       0.42403900
   110  C          0.75275000       0.66293000       0.07596100
   111  C          0.75275000       0.83707000       0.57596100
   112  C          0.24725000       0.33707000       0.92403900
   113  H          0.38950000       0.08990000       0.41740000
   114  H          0.61050000       0.58990000       0.08260000
   115  H          0.61050000       0.91010000       0.58260000
   116  H          0.38950000       0.41010000       0.91740000
