data_DALGON02
_symmetry_space_group_name_H-M    'P1'
_symmetry_Int_Tables_number       1
loop_
_symmetry_equiv_pos_site_id
_symmetry_equiv_pos_as_xyz
1 x,y,z
_cell_length_a                   8.3449
_cell_length_b                   24.2506
_cell_length_c                   10.8732
_cell_angle_alpha                90.0
_cell_angle_beta                 90.0
_cell_angle_gamma                90.0
loop_
_atom_site_label
_atom_site_type_symbol
_atom_site_fract_x
_atom_site_fract_y
_atom_site_fract_z
     1  C          0.65887000       0.07182000       0.52883000
     2  C          0.84113000       0.92818000       0.02883000
     3  C          0.34113000       0.57182000       0.97117000
     4  C          0.15887000       0.42818000       0.47117000
     5  C          0.34113000       0.92818000       0.47117000
     6  C          0.15887000       0.07182000       0.97117000
     7  C          0.65887000       0.42818000       0.02883000
     8  C          0.84113000       0.57182000       0.52883000
     9  C          0.70927000       0.01955000       0.56408000
    10  C          0.79073000       0.98045000       0.06408000
    11  C          0.29073000       0.51955000       0.93592000
    12  C          0.20927000       0.48045000       0.43592000
    13  C          0.29073000       0.98045000       0.43592000
    14  C          0.20927000       0.01955000       0.93592000
    15  C          0.70927000       0.48045000       0.06408000
    16  C          0.79073000       0.51955000       0.56408000
    17  C          0.79657000       0.01248000       0.67179000
    18  C          0.70343000       0.98752000       0.17179000
    19  C          0.20343000       0.51248000       0.82821000
    20  C          0.29657000       0.48752000       0.32821000
    21  C          0.20343000       0.98752000       0.32821000
    22  C          0.29657000       0.01248000       0.82821000
    23  C          0.79657000       0.48752000       0.17179000
    24  C          0.70343000       0.51248000       0.67179000
    25  C          0.83399000       0.05807000       0.74412000
    26  C          0.66601000       0.94193000       0.24412000
    27  C          0.16601000       0.55807000       0.75588000
    28  C          0.33399000       0.44193000       0.25588000
    29  C          0.16601000       0.94193000       0.25588000
    30  C          0.33399000       0.05807000       0.75588000
    31  C          0.83399000       0.44193000       0.24412000
    32  C          0.66601000       0.55807000       0.74412000
    33  C          0.78649000       0.11077000       0.70851000
    34  C          0.71351000       0.88923000       0.20851000
    35  C          0.21351000       0.61077000       0.79149000
    36  C          0.28649000       0.38923000       0.29149000
    37  C          0.21351000       0.88923000       0.29149000
    38  C          0.28649000       0.11077000       0.79149000
    39  C          0.78649000       0.38923000       0.20851000
    40  C          0.71351000       0.61077000       0.70851000
    41  C          0.69874000       0.11727000       0.60036000
    42  C          0.80126000       0.88273000       0.10036000
    43  C          0.30126000       0.61727000       0.89964000
    44  C          0.19874000       0.38273000       0.39964000
    45  C          0.30126000       0.88273000       0.39964000
    46  C          0.19874000       0.11727000       0.89964000
    47  C          0.69874000       0.38273000       0.10036000
    48  C          0.80126000       0.61727000       0.60036000
    49  C          0.83610000       0.15911000       0.78604000
    50  C          0.66390000       0.84089000       0.28604000
    51  C          0.16390000       0.65911000       0.71396000
    52  C          0.33610000       0.34089000       0.21396000
    53  C          0.16390000       0.84089000       0.21396000
    54  C          0.33610000       0.15911000       0.71396000
    55  C          0.83610000       0.34089000       0.28604000
    56  C          0.66390000       0.65911000       0.78604000
    57  C          0.81924000       0.21231000       0.74861000
    58  C          0.68076000       0.78769000       0.24861000
    59  C          0.18076000       0.71231000       0.75139000
    60  C          0.31924000       0.28769000       0.25139000
    61  C          0.18076000       0.78769000       0.25139000
    62  C          0.31924000       0.21231000       0.75139000
    63  C          0.81924000       0.28769000       0.24861000
    64  C          0.68076000       0.71231000       0.74861000
    65  C          0.88034000       0.26113000       0.81912000
    66  C          0.61966000       0.73887000       0.31912000
    67  C          0.11966000       0.76113000       0.68088000
    68  C          0.38034000       0.23887000       0.18088000
    69  C          0.11966000       0.73887000       0.18088000
    70  C          0.38034000       0.26113000       0.68088000
    71  C          0.88034000       0.23887000       0.31912000
    72  C          0.61966000       0.76113000       0.81912000
    73  C          0.86413000       0.31355000       0.76654000
    74  C          0.63587000       0.68645000       0.26654000
    75  C          0.13587000       0.81355000       0.73346000
    76  C          0.36413000       0.18645000       0.23346000
    77  C          0.13587000       0.68645000       0.23346000
    78  C          0.36413000       0.31355000       0.73346000
    79  C          0.86413000       0.18645000       0.26654000
    80  C          0.63587000       0.81355000       0.76654000
    81  C          0.92457000       0.35983000       0.82464000
    82  C          0.57543000       0.64017000       0.32464000
    83  C          0.07543000       0.85983000       0.67536000
    84  C          0.42457000       0.14017000       0.17536000
    85  C          0.07543000       0.64017000       0.17536000
    86  C          0.42457000       0.35983000       0.67536000
    87  C          0.92457000       0.14017000       0.32464000
    88  C          0.57543000       0.85983000       0.82464000
    89  C          0.00500000       0.35497000       0.93699000
    90  C          0.49500000       0.64503000       0.43699000
    91  C         -0.00500000       0.85497000       0.56301000
    92  C          0.50500000       0.14503000       0.06301000
    93  C         -0.00500000       0.64503000       0.06301000
    94  C          0.50500000       0.35497000       0.56301000
    95  C          0.00500000       0.14503000       0.43699000
    96  C          0.49500000       0.85497000       0.93699000
    97  C          0.01966000       0.30294000      -0.00893000
    98  C          0.48034000       0.69706000       0.49107000
    99  C          0.98034000       0.80294000       0.50893000
   100  C          0.51966000       0.19706000       0.00893000
   101  C          0.98034000       0.69706000       0.00893000
   102  C          0.51966000       0.30294000       0.50893000
   103  C          0.01966000       0.19706000       0.49107000
   104  C          0.48034000       0.80294000      -0.00893000
   105  C          0.95693000       0.25671000       0.93362000
   106  C          0.54307000       0.74329000       0.43362000
   107  C          0.04307000       0.75671000       0.56638000
   108  C          0.45693000       0.24329000       0.06638000
   109  C          0.04307000       0.74329000       0.06638000
   110  C          0.45693000       0.25671000       0.56638000
   111  C          0.95693000       0.24329000       0.43362000
   112  C          0.54307000       0.75671000       0.93362000
   113  O          0.06598000       0.40137000      -0.00851000
   114  O          0.43402000       0.59863000       0.49149000
   115  O          0.93402000       0.90137000       0.50851000
   116  O          0.56598000       0.09863000       0.00851000
   117  O          0.93402000       0.59863000       0.00851000
   118  O          0.56598000       0.40137000       0.50851000
   119  O          0.06598000       0.09863000       0.49149000
   120  O          0.43402000       0.90137000      -0.00851000
   121  O          0.84791000       0.96179000       0.70909000
   122  O          0.65209000       0.03821000       0.20909000
   123  O          0.15209000       0.46179000       0.79091000
   124  O          0.34791000       0.53821000       0.29091000
   125  O          0.15209000       0.03821000       0.29091000
   126  O          0.34791000       0.96179000       0.79091000
   127  O          0.84791000       0.53821000       0.20909000
   128  O          0.65209000       0.46179000       0.70909000
   129  O          0.56835000       0.08029000       0.42575000
   130  O          0.93165000       0.91971000       0.92575000
   131  O          0.43165000       0.58029000       0.07425000
   132  O          0.06835000       0.41971000       0.57425000
   133  O          0.43165000       0.91971000       0.57425000
   134  O          0.06835000       0.08029000       0.07425000
   135  O          0.56835000       0.41971000       0.92575000
   136  O          0.93165000       0.58029000       0.42575000
   137  H          0.67806000       0.98349000       0.50771000
   138  H          0.82194000       0.01651000       0.00771000
   139  H          0.32194000       0.48349000      -0.00771000
   140  H          0.17806000       0.51651000       0.49229000
   141  H          0.32194000       0.01651000       0.49229000
   142  H          0.17806000       0.98349000      -0.00771000
   143  H          0.67806000       0.51651000       0.00771000
   144  H          0.82194000       0.48349000       0.50771000
   145  H          0.90468000       0.05173000       0.82801000
   146  H          0.59532000       0.94827000       0.32801000
   147  H          0.09532000       0.55173000       0.67199000
   148  H          0.40468000       0.44827000       0.17199000
   149  H          0.09532000       0.94827000       0.17199000
   150  H          0.40468000       0.05173000       0.67199000
   151  H          0.90468000       0.44827000       0.32801000
   152  H          0.59532000       0.55173000       0.82801000
   153  H          0.66045000       0.15777000       0.56681000
   154  H          0.83955000       0.84223000       0.06681000
   155  H          0.33955000       0.65777000       0.93319000
   156  H          0.16045000       0.34223000       0.43319000
   157  H          0.33955000       0.84223000       0.43319000
   158  H          0.16045000       0.15777000       0.93319000
   159  H          0.66045000       0.34223000       0.06681000
   160  H          0.83955000       0.65777000       0.56681000
   161  H          0.89105000       0.15032000       0.87483000
   162  H          0.60895000       0.84968000       0.37483000
   163  H          0.10895000       0.65032000       0.62517000
   164  H          0.39105000       0.34968000       0.12517000
   165  H          0.10895000       0.84968000       0.12517000
   166  H          0.39105000       0.15032000       0.62517000
   167  H          0.89105000       0.34968000       0.37483000
   168  H          0.60895000       0.65032000       0.87483000
   169  H          0.76225000       0.22095000       0.66054000
   170  H          0.73775000       0.77905000       0.16054000
   171  H          0.23775000       0.72095000       0.83946000
   172  H          0.26225000       0.27905000       0.33946000
   173  H          0.23775000       0.77905000       0.33946000
   174  H          0.26225000       0.22095000       0.83946000
   175  H          0.76225000       0.27905000       0.16054000
   176  H          0.73775000       0.72095000       0.66054000
   177  H          0.80406000       0.31903000       0.67743000
   178  H          0.69594000       0.68097000       0.17743000
   179  H          0.19594000       0.81903000       0.82257000
   180  H          0.30406000       0.18097000       0.32257000
   181  H          0.19594000       0.68097000       0.32257000
   182  H          0.30406000       0.31903000       0.82257000
   183  H          0.80406000       0.18097000       0.17743000
   184  H          0.69594000       0.81903000       0.67743000
   185  H          0.90755000       0.40046000       0.78181000
   186  H          0.59245000       0.59954000       0.28181000
   187  H          0.09245000       0.90046000       0.71819000
   188  H          0.40755000       0.09954000       0.21819000
   189  H          0.09245000       0.59954000       0.21819000
   190  H          0.40755000       0.40046000       0.71819000
   191  H          0.90755000       0.09954000       0.28181000
   192  H          0.59245000       0.90046000       0.78181000
   193  H          0.08093000       0.29827000       0.07994000
   194  H          0.41907000       0.70173000       0.57994000
   195  H          0.91907000       0.79827000       0.42006000
   196  H          0.58093000       0.20173000       0.92006000
   197  H          0.91907000       0.70173000       0.92006000
   198  H          0.58093000       0.29827000       0.42006000
   199  H          0.08093000       0.20173000       0.57994000
   200  H          0.41907000       0.79827000       0.07994000
   201  H          0.97130000       0.21704000       0.98080000
   202  H          0.52870000       0.78296000       0.48080000
   203  H          0.02870000       0.71704000       0.51920000
   204  H          0.47130000       0.28296000       0.01920000
   205  H          0.02870000       0.78296000       0.01920000
   206  H          0.47130000       0.21704000       0.51920000
   207  H          0.97130000       0.28296000       0.48080000
   208  H          0.52870000       0.71704000       0.98080000
   209  H          0.03696000       0.39971000       0.07642000
   210  H          0.46304000       0.60029000       0.57642000
   211  H          0.96304000       0.89971000       0.42358000
   212  H          0.53696000       0.10029000       0.92358000
   213  H          0.96304000       0.60029000       0.92358000
   214  H          0.53696000       0.39971000       0.42358000
   215  H          0.03696000       0.10029000       0.57642000
   216  H          0.46304000       0.89971000       0.07642000
   217  H          0.86193000       0.93926000       0.63705000
   218  H          0.63807000       0.06074000       0.13705000
   219  H          0.13807000       0.43926000       0.86295000
   220  H          0.36193000       0.56074000       0.36295000
   221  H          0.13807000       0.06074000       0.36295000
   222  H          0.36193000       0.93926000       0.86295000
   223  H          0.86193000       0.56074000       0.13705000
   224  H          0.63807000       0.43926000       0.63705000
   225  H          0.61119000       0.05853000       0.35995000
   226  H          0.88881000       0.94147000       0.85995000
   227  H          0.38881000       0.55853000       0.14005000
   228  H          0.11119000       0.44147000       0.64005000
   229  H          0.38881000       0.94147000       0.64005000
   230  H          0.11119000       0.05853000       0.14005000
   231  H          0.61119000       0.44147000       0.85995000
   232  H          0.88881000       0.55853000       0.35995000
