data_DALGON01
_symmetry_space_group_name_H-M    'P1'
_symmetry_Int_Tables_number       1
loop_
_symmetry_equiv_pos_site_id
_symmetry_equiv_pos_as_xyz
1 x,y,z
_cell_length_a                   4.5627
_cell_length_b                   26.701
_cell_length_c                   9.2491
_cell_angle_alpha                90.0
_cell_angle_beta                 92.5483
_cell_angle_gamma                90.0
loop_
_atom_site_label
_atom_site_type_symbol
_atom_site_fract_x
_atom_site_fract_y
_atom_site_fract_z
     1  C          0.09575000       0.94069000       0.40449000
     2  C          0.90425000       0.44069000       0.09551000
     3  C          0.90425000       0.05931000       0.59551000
     4  C          0.09575000       0.55931000       0.90449000
     5  C          0.03172000       0.95912000       0.26580000
     6  C         -0.03172000       0.45912000       0.23420000
     7  C         -0.03172000       0.04088000       0.73420000
     8  C          0.03172000       0.54088000       0.76580000
     9  C          0.85178000       0.93211000       0.16795000
    10  C          0.14822000       0.43211000       0.33205000
    11  C          0.14822000       0.06789000       0.83205000
    12  C          0.85178000       0.56789000       0.66795000
    13  C          0.73841000       0.88655000       0.20976000
    14  C          0.26159000       0.38655000       0.29024000
    15  C          0.26159000       0.11345000       0.79024000
    16  C          0.73841000       0.61345000       0.70976000
    17  C          0.80422000       0.86732000       0.34695000
    18  C          0.19578000       0.36732000       0.15305000
    19  C          0.19578000       0.13268000       0.65305000
    20  C          0.80422000       0.63268000       0.84695000
    21  C         -0.01758000       0.89446000       0.44494000
    22  C          0.01758000       0.39446000       0.05506000
    23  C          0.01758000       0.10554000       0.55506000
    24  C         -0.01758000       0.60554000       0.94494000
    25  C          0.67661000       0.81782000       0.38681000
    26  C          0.32339000       0.31782000       0.11319000
    27  C          0.32339000       0.18218000       0.61319000
    28  C          0.67661000       0.68218000       0.88681000
    29  C          0.70174000       0.77744000       0.29895000
    30  C          0.29826000       0.27744000       0.20105000
    31  C          0.29826000       0.22256000       0.70105000
    32  C          0.70174000       0.72256000       0.79895000
    33  C          0.57738000       0.72675000       0.32998000
    34  C          0.42262000       0.22675000       0.17002000
    35  C          0.42262000       0.27325000       0.67002000
    36  C          0.57738000       0.77325000       0.82998000
    37  C          0.35335000       0.71913000       0.42668000
    38  C          0.64665000       0.21913000       0.07332000
    39  C          0.64665000       0.28087000       0.57332000
    40  C          0.35335000       0.78087000       0.92668000
    41  C          0.24627000       0.67139000       0.45147000
    42  C          0.75373000       0.17139000       0.04853000
    43  C          0.75373000       0.32861000       0.54853000
    44  C          0.24627000       0.82861000       0.95147000
    45  C          0.36143000       0.62988000       0.38137000
    46  C          0.63857000       0.12988000       0.11863000
    47  C          0.63857000       0.37012000       0.61863000
    48  C          0.36143000       0.87012000       0.88137000
    49  C          0.58323000       0.63752000       0.28339000
    50  C          0.41677000       0.13752000       0.21661000
    51  C          0.41677000       0.36248000       0.71661000
    52  C          0.58323000       0.86248000       0.78339000
    53  C          0.68874000       0.68517000       0.25867000
    54  C          0.31126000       0.18517000       0.24133000
    55  C          0.31126000       0.31483000       0.74133000
    56  C          0.68874000       0.81483000       0.75867000
    57  O          0.27765000       0.58186000       0.40593000
    58  O          0.72235000       0.08186000       0.09407000
    59  O          0.72235000       0.41814000       0.59407000
    60  O          0.27765000       0.91814000       0.90593000
    61  O          0.79468000       0.95105000       0.03248000
    62  O          0.20532000       0.45105000       0.46752000
    63  O          0.20532000       0.04895000       0.96752000
    64  O          0.79468000       0.54895000       0.53248000
    65  O          0.26431000       0.96671000       0.50396000
    66  O          0.73569000       0.46671000      -0.00396000
    67  O          0.73569000       0.03329000       0.49604000
    68  O          0.26431000       0.53329000       0.00396000
    69  H          0.12147000      -0.00454000       0.23274000
    70  H          0.87853000       0.49546000       0.26726000
    71  H          0.87853000       0.00454000       0.76726000
    72  H          0.12147000       0.50454000       0.73274000
    73  H          0.59514000       0.86545000       0.13412000
    74  H          0.40486000       0.36545000       0.36588000
    75  H          0.40486000       0.13455000       0.86588000
    76  H          0.59514000       0.63455000       0.63412000
    77  H          0.03979000       0.87996000       0.55367000
    78  H          0.96021000       0.37996000       0.94633000
    79  H          0.96021000       0.12004000       0.44633000
    80  H          0.03979000       0.62004000       0.05367000
    81  H          0.56320000       0.81497000       0.48749000
    82  H          0.43680000       0.31497000       0.01251000
    83  H          0.43680000       0.18503000       0.51251000
    84  H          0.56320000       0.68503000      -0.01251000
    85  H          0.82479000       0.78164000       0.20091000
    86  H          0.17521000       0.28164000       0.29909000
    87  H          0.17521000       0.21836000       0.79909000
    88  H          0.82479000       0.71836000       0.70091000
    89  H          0.25598000       0.75058000       0.48425000
    90  H          0.74402000       0.25058000       0.01575000
    91  H          0.74402000       0.24942000       0.51575000
    92  H          0.25598000       0.74942000       0.98425000
    93  H          0.07163000       0.66640000       0.52826000
    94  H          0.92837000       0.16640000       0.97174000
    95  H          0.92837000       0.33360000       0.47174000
    96  H          0.07163000       0.83360000       0.02826000
    97  H          0.67474000       0.60522000       0.22674000
    98  H          0.32526000       0.10522000       0.27326000
    99  H          0.32526000       0.39478000       0.77326000
   100  H          0.67474000       0.89478000       0.72674000
   101  H          0.86786000       0.68969000       0.18415000
   102  H          0.13214000       0.18969000       0.31585000
   103  H          0.13214000       0.31031000       0.81585000
   104  H          0.86786000       0.81031000       0.68415000
   105  H          0.09883000       0.58090000       0.45661000
   106  H          0.90117000       0.08090000       0.04339000
   107  H          0.90117000       0.41910000       0.54339000
   108  H          0.09883000       0.91910000       0.95661000
   109  H          0.60167000       0.94062000      -0.00110000
   110  H          0.39833000       0.44062000       0.50110000
   111  H          0.39833000       0.05938000       0.00110000
   112  H          0.60167000       0.55938000       0.49890000
   113  H          0.26346000       0.00126000       0.47721000
   114  H          0.73654000       0.50126000       0.02279000
   115  H          0.73654000      -0.00126000       0.52279000
   116  H          0.26346000       0.49874000       0.97721000
