data_DAMPEO03
_symmetry_space_group_name_H-M    'P1'
_symmetry_Int_Tables_number       1
loop_
_symmetry_equiv_pos_site_id
_symmetry_equiv_pos_as_xyz
1 x,y,z
_cell_length_a                   9.2504
_cell_length_b                   14.2074
_cell_length_c                   17.5091
_cell_angle_alpha                90.0
_cell_angle_beta                 90.0
_cell_angle_gamma                90.0
loop_
_atom_site_label
_atom_site_type_symbol
_atom_site_fract_x
_atom_site_fract_y
_atom_site_fract_z
     1  O          0.59033000       0.19248150       0.60074170
     2  O          0.90967000       0.80751850       0.10074170
     3  O          0.40967000       0.69248150       0.89925830
     4  O          0.09033000       0.30751850       0.39925830
     5  O          0.40967000       0.80751850       0.39925830
     6  O          0.09033000       0.19248150       0.89925830
     7  O          0.59033000       0.30751850       0.10074170
     8  O          0.90967000       0.69248150       0.60074170
     9  O          0.80883000       0.12840170       0.58484170
    10  O          0.69117000       0.87159830       0.08484170
    11  O          0.19117000       0.62840170       0.91515830
    12  O          0.30883000       0.37159830       0.41515830
    13  O          0.19117000       0.87159830       0.41515830
    14  O          0.30883000       0.12840170       0.91515830
    15  O          0.80883000       0.37159830       0.08484170
    16  O          0.69117000       0.62840170       0.58484170
    17  C          0.72345000       0.19772000       0.59242000
    18  C          0.77655000       0.80228000       0.09242000
    19  C          0.27655000       0.69772000       0.90758000
    20  C          0.22345000       0.30228000       0.40758000
    21  C          0.27655000       0.80228000       0.40758000
    22  C          0.22345000       0.19772000       0.90758000
    23  C          0.72345000       0.30228000       0.09242000
    24  C          0.77655000       0.69772000       0.59242000
    25  C          0.71784000       0.37732000       0.60252000
    26  C          0.78216000       0.62268000       0.10252000
    27  C          0.28216000       0.87732000       0.89748000
    28  C          0.21784000       0.12268000       0.39748000
    29  C          0.28216000       0.62268000       0.39748000
    30  C          0.21784000       0.37732000       0.89748000
    31  C          0.71784000       0.12268000       0.10252000
    32  C          0.78216000       0.87732000       0.60252000
    33  N          0.78974000       0.46032000       0.60031180
    34  N          0.71026000       0.53968000       0.10031180
    35  N          0.21026000       0.96032000       0.89968820
    36  N          0.28974000       0.03968000       0.39968820
    37  N          0.21026000       0.53968000       0.39968820
    38  N          0.28974000       0.46032000       0.89968820
    39  N          0.78974000       0.03968000       0.10031180
    40  N          0.71026000       0.96032000       0.60031180
    41  N          0.57594000       0.37752000       0.61482000
    42  N          0.92406000       0.62248000       0.11482000
    43  N          0.42406000       0.87752000       0.88518000
    44  N          0.07594000       0.12248000       0.38518000
    45  N          0.42406000       0.62248000       0.38518000
    46  N          0.07594000       0.37752000       0.88518000
    47  N          0.57594000       0.12248000       0.11482000
    48  N          0.92406000       0.87752000       0.61482000
    49  C          0.79634000       0.29202000       0.59072000
    50  C          0.70366000       0.70798000       0.09072000
    51  C          0.20366000       0.79202000       0.90928000
    52  C          0.29634000       0.20798000       0.40928000
    53  C          0.20366000       0.70798000       0.40928000
    54  C          0.29634000       0.29202000       0.90928000
    55  C          0.79634000       0.20798000       0.09072000
    56  C          0.70366000       0.79202000       0.59072000
    57  C          0.93385000       0.46312000       0.58952000
    58  C          0.56615000       0.53688000       0.08952000
    59  C          0.06615000       0.96312000       0.91048000
    60  C          0.43385000       0.03688000       0.41048000
    61  C          0.06615000       0.53688000       0.41048000
    62  C          0.43385000       0.46312000       0.91048000
    63  C          0.93385000       0.03688000       0.08952000
    64  C          0.56615000       0.96312000       0.58952000
    65  H          0.97970000       0.52140000       0.58930000
    66  H          0.52030000       0.47860000       0.08930000
    67  H          0.02030000       0.02140000       0.91070000
    68  H          0.47970000       0.97860000       0.41070000
    69  H          0.02030000       0.47860000       0.41070000
    70  H          0.47970000       0.52140000       0.91070000
    71  H          0.97970000       0.97860000       0.08930000
    72  H          0.52030000       0.02140000       0.58930000
    73  C          0.94184000       0.29872000       0.58022000
    74  C          0.55816000       0.70128000       0.08022000
    75  C          0.05816000       0.79872000       0.91978000
    76  C          0.44184000       0.20128000       0.41978000
    77  C          0.05816000       0.70128000       0.41978000
    78  C          0.44184000       0.29872000       0.91978000
    79  C          0.94184000       0.20128000       0.08022000
    80  C          0.55816000       0.79872000       0.58022000
    81  H         -0.00540000       0.24350000       0.57370000
    82  H          0.50540000       0.75650000       0.07370000
    83  H          0.00540000       0.74350000       0.92630000
    84  H          0.49460000       0.25650000       0.42630000
    85  H          0.00540000       0.75650000       0.42630000
    86  H          0.49460000       0.24350000       0.92630000
    87  H         -0.00540000       0.25650000       0.07370000
    88  H          0.50540000       0.74350000       0.57370000
    89  C          0.01534000       0.38442000       0.57872000
    90  C          0.48466000       0.61558000       0.07872000
    91  C          0.98466000       0.88442000       0.92128000
    92  C          0.51534000       0.11558000       0.42128000
    93  C          0.98466000       0.61558000       0.42128000
    94  C          0.51534000       0.38442000       0.92128000
    95  C          0.01534000       0.11558000       0.07872000
    96  C          0.48466000       0.88442000       0.57872000
    97  H          0.11460000       0.38760000       0.57090000
    98  H          0.38540000       0.61240000       0.07090000
    99  H          0.88540000       0.88760000       0.92910000
   100  H          0.61460000       0.11240000       0.42910000
   101  H          0.88540000       0.61240000       0.42910000
   102  H          0.61460000       0.38760000       0.92910000
   103  H          0.11460000       0.11240000       0.07090000
   104  H          0.38540000       0.88760000       0.57090000
   105  C          0.49084000       0.45732000       0.63603000
   106  C          0.00916000       0.54268000       0.13603000
   107  C          0.50916000       0.95732000       0.86397000
   108  C         -0.00916000       0.04268000       0.36397000
   109  C          0.50916000       0.54268000       0.36397000
   110  C         -0.00916000       0.45732000       0.86397000
   111  C          0.49084000       0.04268000       0.13603000
   112  C          0.00916000       0.95732000       0.63603000
   113  C          0.30834000       0.57102000       0.60473000
   114  C          0.19166000       0.42898000       0.10473000
   115  C          0.69166000       0.07102000       0.89527000
   116  C          0.80834000       0.92898000       0.39527000
   117  C          0.69166000       0.42898000       0.39527000
   118  C          0.80834000       0.57102000       0.89527000
   119  C          0.30834000       0.92898000       0.10473000
   120  C          0.19166000       0.07102000       0.60473000
   121  H          0.23990000       0.59380000       0.57050000
   122  H          0.26010000       0.40620000       0.07050000
   123  H          0.76010000       0.09380000       0.92950000
   124  H          0.73990000       0.90620000       0.42950000
   125  H          0.76010000       0.40620000       0.42950000
   126  H          0.73990000       0.59380000       0.92950000
   127  H          0.23990000       0.90620000       0.07050000
   128  H          0.26010000       0.09380000       0.57050000
   129  C          0.32834000       0.61542000       0.67363000
   130  C          0.17166000       0.38458000       0.17363000
   131  C          0.67166000       0.11542000       0.82637000
   132  C          0.82834000       0.88458000       0.32637000
   133  C          0.67166000       0.38458000       0.32637000
   134  C          0.82834000       0.61542000       0.82637000
   135  C          0.32834000       0.88458000       0.17363000
   136  C          0.17166000       0.11542000       0.67363000
   137  C          0.39004000       0.49192000       0.58603000
   138  C          0.10996000       0.50808000       0.08603000
   139  C          0.60996000      -0.00808000       0.91397000
   140  C          0.89004000       0.00808000       0.41397000
   141  C          0.60996000       0.50808000       0.41397000
   142  C          0.89004000       0.49192000       0.91397000
   143  C          0.39004000       0.00808000       0.08603000
   144  C          0.10996000      -0.00808000       0.58603000
   145  H          0.37600000       0.46240000       0.53920000
   146  H          0.12400000       0.53760000       0.03920000
   147  H          0.62400000       0.96240000       0.96080000
   148  H          0.87600000       0.03760000       0.46080000
   149  H          0.62400000       0.53760000       0.46080000
   150  H          0.87600000       0.46240000       0.96080000
   151  H          0.37600000       0.03760000       0.03920000
   152  H          0.12400000       0.96240000       0.53920000
   153  C          0.42715000       0.57702000       0.72393000
   154  C          0.07285000       0.42298000       0.22393000
   155  C          0.57285000       0.07702000       0.77607000
   156  C          0.92715000       0.92298000       0.27607000
   157  C          0.57285000       0.42298000       0.27607000
   158  C          0.92715000       0.57702000       0.77607000
   159  C          0.42715000       0.92298000       0.22393000
   160  C          0.07285000       0.07702000       0.72393000
   161  H          0.43900000       0.60450000       0.77170000
   162  H          0.06100000       0.39550000       0.27170000
   163  H          0.56100000       0.10450000       0.72830000
   164  H          0.93900000       0.89550000       0.22830000
   165  H          0.56100000       0.39550000       0.22830000
   166  H          0.93900000       0.60450000       0.72830000
   167  H          0.43900000       0.89550000       0.27170000
   168  H          0.06100000       0.10450000       0.77170000
   169  C          0.50865000       0.49902000       0.70533000
   170  C         -0.00865000       0.50098000       0.20533000
   171  C          0.49135000      -0.00098000       0.79467000
   172  C          0.00865000       0.00098000       0.29467000
   173  C          0.49135000       0.50098000       0.29467000
   174  C          0.00865000       0.49902000       0.79467000
   175  C          0.50865000       0.00098000       0.20533000
   176  C         -0.00865000      -0.00098000       0.70533000
   177  H          0.57540000       0.47510000       0.73990000
   178  H          0.92460000       0.52490000       0.23990000
   179  H          0.42460000       0.97510000       0.76010000
   180  H          0.07540000       0.02490000       0.26010000
   181  H          0.42460000       0.52490000       0.26010000
   182  H          0.07540000       0.47510000       0.76010000
   183  H          0.57540000       0.02490000       0.23990000
   184  H          0.92460000       0.97510000       0.73990000
   185  C          0.24524000       0.70432000       0.69463000
   186  C          0.25476000       0.29568000       0.19463000
   187  C          0.75476000       0.20432000       0.80537000
   188  C          0.74524000       0.79568000       0.30537000
   189  C          0.75476000       0.29568000       0.30537000
   190  C          0.74524000       0.70432000       0.80537000
   191  C          0.24524000       0.79568000       0.19463000
   192  C          0.25476000       0.20432000       0.69463000
   193  H          0.18220000       0.72140000       0.65330000
   194  H          0.31780000       0.27860000       0.15330000
   195  H          0.81780000       0.22140000       0.84670000
   196  H          0.68220000       0.77860000       0.34670000
   197  H          0.81780000       0.27860000       0.34670000
   198  H          0.68220000       0.72140000       0.84670000
   199  H          0.18220000       0.77860000       0.15330000
   200  H          0.31780000       0.22140000       0.65330000
   201  H          0.31210000       0.75460000       0.70410000
   202  H          0.18790000       0.24540000       0.20410000
   203  H          0.68790000       0.25460000       0.79590000
   204  H          0.81210000       0.74540000       0.29590000
   205  H          0.68790000       0.24540000       0.29590000
   206  H          0.81210000       0.75460000       0.79590000
   207  H          0.31210000       0.74540000       0.20410000
   208  H          0.18790000       0.25460000       0.70410000
   209  H          0.18880000       0.69290000       0.73970000
   210  H          0.31120000       0.30710000       0.23970000
   211  H          0.81120000       0.19290000       0.76030000
   212  H          0.68880000       0.80710000       0.26030000
   213  H          0.81120000       0.30710000       0.26030000
   214  H          0.68880000       0.69290000       0.76030000
   215  H          0.18880000       0.80710000       0.23970000
   216  H          0.31120000       0.19290000       0.73970000
   217  H          0.53330000       0.32220000       0.61001600
   218  H          0.96670000       0.67780000       0.11001600
   219  H          0.46670000       0.82220000       0.88998400
   220  H          0.03330000       0.17780000       0.38998400
   221  H          0.46670000       0.67780000       0.38998400
   222  H          0.03330000       0.32220000       0.88998400
   223  H          0.53330000       0.17780000       0.11001600
   224  H          0.96670000       0.82220000       0.61001600
   225  H          0.76750000       0.04530000       0.60220000
   226  H          0.73250000       0.95470000       0.10220000
   227  H          0.23250000       0.54530000       0.89780000
   228  H          0.26750000       0.45470000       0.39780000
   229  H          0.23250000       0.95470000       0.39780000
   230  H          0.26750000       0.04530000       0.89780000
   231  H          0.76750000       0.45470000       0.10220000
   232  H          0.73250000       0.54530000       0.60220000
