data_DAMPEO
_symmetry_space_group_name_H-M    'P1'
_symmetry_Int_Tables_number       1
loop_
_symmetry_equiv_pos_site_id
_symmetry_equiv_pos_as_xyz
1 x,y,z
_cell_length_a                   11.0381
_cell_length_b                   9.0678
_cell_length_c                   11.3921
_cell_angle_alpha                90.0
_cell_angle_beta                 101.86014
_cell_angle_gamma                90.0
loop_
_atom_site_label
_atom_site_type_symbol
_atom_site_fract_x
_atom_site_fract_y
_atom_site_fract_z
     1  O          0.28272190       0.18522000       0.94466190
     2  O          0.21727810       0.68522000       0.55533810
     3  O          0.71727810       0.81478000       0.05533810
     4  O          0.78272190       0.31478000       0.44466190
     5  C          0.19843000       0.27393000       0.88673000
     6  C          0.30157000       0.77393000       0.61327000
     7  C          0.80157000       0.72607000       0.11327000
     8  C          0.69843000       0.22607000       0.38673000
     9  C          0.01013000       0.27593000       0.71652000
    10  C          0.48987000       0.77593000       0.78348000
    11  C         -0.01013000       0.72407000       0.28348000
    12  C          0.51013000       0.22407000       0.21652000
    13  N         -0.00658000       0.42043000       0.73112000
    14  N          0.50658000       0.92043000       0.76888000
    15  N          0.00658000       0.57957000       0.26888000
    16  N          0.49342000       0.07957000       0.23112000
    17  O          0.19167190       0.40422000       0.91002000
    18  O          0.30832810       0.90422000       0.58998000
    19  O          0.80832810       0.59578000       0.08998000
    20  O          0.69167190       0.09578000       0.41002000
    21  C          0.11053000       0.19923000       0.78943000
    22  C          0.38947000       0.69923000       0.71057000
    23  C          0.88947000       0.80077000       0.21057000
    24  C          0.61053000       0.30077000       0.28943000
    25  N          0.93032000       0.20483000       0.63052000
    26  N          0.56968000       0.70483000       0.86948000
    27  N          0.06968000       0.79517000       0.36948000
    28  N          0.43032000       0.29517000       0.13052000
    29  C          0.12243000       0.05073000       0.76973000
    30  C          0.37757000       0.55073000       0.73027000
    31  C          0.87757000       0.94927000       0.23027000
    32  C          0.62243000       0.44927000       0.26973000
    33  H          0.18980000      -0.00250000       0.81600000
    34  H          0.31020000       0.49750000       0.68400000
    35  H          0.81020000       0.00250000       0.18400000
    36  H          0.68980000       0.50250000       0.31600000
    37  C          0.89163000       0.50383000       0.66743000
    38  C          0.60837000       0.00383000       0.83257000
    39  C          0.10837000       0.49617000       0.33257000
    40  C          0.39163000      -0.00383000       0.16743000
    41  C          0.94373000       0.05963000       0.61683000
    42  C          0.55627000       0.55963000       0.88317000
    43  C          0.05627000       0.94037000       0.38317000
    44  C          0.44373000       0.44037000       0.11683000
    45  H          0.88460000       0.01000000       0.55750000
    46  H          0.61540000       0.51000000       0.94250000
    47  H          0.11540000      -0.01000000       0.44250000
    48  H          0.38460000       0.49000000       0.05750000
    49  C          0.81503000       0.69233000       0.52453000
    50  C          0.68497000       0.19233000       0.97547000
    51  C          0.18497000       0.30767000       0.47547000
    52  C          0.31503000       0.80767000       0.02453000
    53  H          0.83030000       0.76520000       0.46950000
    54  H          0.66970000       0.26520000       0.03050000
    55  H          0.16970000       0.23480000       0.53050000
    56  H          0.33030000       0.73480000       0.96950000
    57  C          0.69483000       0.67053000       0.54113000
    58  C          0.80517000       0.17053000       0.95887000
    59  C          0.30517000       0.32947000       0.45887000
    60  C          0.19483000       0.82947000       0.04113000
    61  C          0.03753000       0.97867000       0.68323000
    62  C          0.46247000       0.47867000       0.81677000
    63  C          0.96247000       0.02133000       0.31677000
    64  C          0.53753000       0.52133000       0.18323000
    65  H          0.04400000       0.87570000       0.67020000
    66  H          0.45600000       0.37570000       0.82980000
    67  H          0.95600000       0.12430000       0.32980000
    68  H          0.54400000       0.62430000       0.17020000
    69  C          0.91233000       0.60943000       0.58683000
    70  C          0.58767000       0.10943000       0.91317000
    71  C          0.08767000       0.39057000       0.41317000
    72  C          0.41233000       0.89057000       0.08683000
    73  H         -0.00630000       0.62520000       0.57400000
    74  H          0.50630000       0.12520000       0.92600000
    75  H          0.00630000       0.37480000       0.42600000
    76  H          0.49370000       0.87480000       0.07400000
    77  C          0.67613000       0.56303000       0.62183000
    78  C          0.82387000       0.06303000       0.87817000
    79  C          0.32387000       0.43697000       0.37817000
    80  C          0.17613000       0.93697000       0.12183000
    81  H          0.59470000       0.54510000       0.63350000
    82  H          0.90530000       0.04510000       0.86650000
    83  H          0.40530000       0.45490000       0.36650000
    84  H          0.09470000       0.95490000       0.13350000
    85  C          0.58913000       0.76084000       0.47353000
    86  C          0.91087000       0.26084000       0.02647000
    87  C          0.41087000       0.23916000       0.52647000
    88  C          0.08913000       0.73916000       0.97353000
    89  H          0.51100000       0.70880000       0.47230000
    90  H         -0.01100000       0.20880000       0.02770000
    91  H          0.48900000       0.29120000       0.52770000
    92  H          0.01100000       0.79120000       0.97230000
    93  H          0.59980000       0.77590000       0.39110000
    94  H          0.90020000       0.27590000       0.10890000
    95  H          0.40020000       0.22410000       0.60890000
    96  H          0.09980000       0.72410000       0.89110000
    97  H          0.58750000       0.85660000       0.51300000
    98  H          0.91250000       0.35660000       0.98700000
    99  H          0.41250000       0.14340000       0.48700000
   100  H          0.08750000       0.64340000       0.01300000
   101  C          0.77303000       0.48143000       0.68543000
   102  C          0.72697000       0.98143000       0.81457000
   103  C          0.22697000       0.51857000       0.31457000
   104  C          0.27303000       0.01857000       0.18543000
   105  H          0.75820000       0.40970000       0.74170000
   106  H          0.74180000       0.90970000       0.75830000
   107  H          0.24180000       0.59030000       0.25830000
   108  H          0.25820000       0.09030000       0.24170000
   109  H          0.05530000       0.45240000       0.78430000
   110  H          0.44470000       0.95240000       0.71570000
   111  H          0.94470000       0.54760000       0.21570000
   112  H          0.55530000       0.04760000       0.28430000
   113  H          0.34140000       0.22340000       0.01840000
   114  H          0.15860000       0.72340000       0.48160000
   115  H          0.65860000       0.77660000       0.98160000
   116  H          0.84140000       0.27660000       0.51840000
