data_DAMPEO02
_symmetry_space_group_name_H-M    'P1'
_symmetry_Int_Tables_number       1
loop_
_symmetry_equiv_pos_site_id
_symmetry_equiv_pos_as_xyz
1 x,y,z
_cell_length_a                   9.078711
_cell_length_b                   14.226117
_cell_length_c                   17.1542
_cell_angle_alpha                90.0
_cell_angle_beta                 90.0
_cell_angle_gamma                90.0
loop_
_atom_site_label
_atom_site_type_symbol
_atom_site_fract_x
_atom_site_fract_y
_atom_site_fract_z
     1  O          0.08456170       0.19333100       0.40100900
     2  O          0.41543830       0.80666900       0.90100900
     3  O          0.91543830       0.69333100       0.09899100
     4  O          0.58456170       0.30666900       0.59899100
     5  O          0.91543830       0.80666900       0.59899100
     6  O          0.58456170       0.19333100       0.09899100
     7  O          0.08456170       0.30666900       0.90100900
     8  O          0.41543830       0.69333100       0.40100900
     9  O          0.30585180       0.12680100       0.41552100
    10  O          0.19414820       0.87319900       0.91552100
    11  O          0.69414820       0.62680100       0.08447900
    12  O          0.80585180       0.37319900       0.58447900
    13  O          0.69414820       0.87319900       0.58447900
    14  O          0.80585180       0.12680100       0.08447900
    15  O          0.30585180       0.37319900       0.91552100
    16  O          0.19414820       0.62680100       0.41552100
    17  N          0.07282000       0.37716130       0.38595120
    18  N          0.42718000       0.62283870       0.88595120
    19  N          0.92718000       0.87716130       0.11404880
    20  N          0.57282000       0.12283870       0.61404880
    21  N          0.92718000       0.62283870       0.61404880
    22  N          0.57282000       0.37716130       0.11404880
    23  N          0.07282000       0.12283870       0.88595120
    24  N          0.42718000       0.87716130       0.38595120
    25  N          0.29372000       0.45807120       0.39996110
    26  N          0.20628000       0.54192880       0.89996110
    27  N          0.70628000       0.95807120       0.10003890
    28  N          0.79372000       0.04192880       0.60003890
    29  N          0.70628000       0.54192880       0.60003890
    30  N          0.79372000       0.45807120       0.10003890
    31  N          0.29372000       0.04192880       0.89996110
    32  N          0.20628000       0.95807120       0.39996110
    33  C          0.22122000       0.19660140       0.40875120
    34  C          0.27878000       0.80339860       0.90875120
    35  C          0.77878000       0.69660140       0.09124880
    36  C          0.72122000       0.30339860       0.59124880
    37  C          0.77878000       0.80339860       0.59124880
    38  C          0.72122000       0.19660140       0.09124880
    39  C          0.22122000       0.30339860       0.90875120
    40  C          0.27878000       0.69660140       0.40875120
    41  C          0.44122000       0.46140150       0.41114130
    42  C          0.05878000       0.53859850       0.91114130
    43  C          0.55878000       0.96140150       0.08885870
    44  C          0.94122000       0.03859850       0.58885870
    45  C          0.55878000       0.53859850       0.58885870
    46  C          0.94122000       0.46140150       0.08885870
    47  C          0.44122000       0.03859850       0.91114130
    48  C          0.05878000       0.96140150       0.41114130
    49  H          0.48940000       0.52060000       0.41190000
    50  H          0.01060000       0.47940000       0.91190000
    51  H          0.51060000       0.02060000       0.08810000
    52  H         -0.01060000       0.97940000       0.58810000
    53  H          0.51060000       0.47940000       0.58810000
    54  H         -0.01060000       0.52060000       0.08810000
    55  H          0.48940000       0.97940000       0.91190000
    56  H          0.01060000       0.02060000       0.41190000
    57  C          0.21782000       0.37643140       0.39801120
    58  C          0.28218000       0.62356860       0.89801120
    59  C          0.78218000       0.87643140       0.10198880
    60  C          0.71782000       0.12356860       0.60198880
    61  C          0.78218000       0.62356860       0.60198880
    62  C          0.71782000       0.37643140       0.10198880
    63  C          0.21782000       0.12356860       0.89801120
    64  C          0.28218000       0.87643140       0.39801120
    65  C          0.52193000       0.38174150       0.42137140
    66  C          0.97807000       0.61825850       0.92137140
    67  C          0.47807000       0.88174150       0.07862860
    68  C          0.02193000       0.11825850       0.57862860
    69  C          0.47807000       0.61825850       0.57862860
    70  C          0.02193000       0.38174150       0.07862860
    71  C          0.52193000       0.11825850       0.92137140
    72  C          0.97807000       0.88174150       0.42137140
    73  H          0.62560000       0.38430000       0.42850000
    74  H          0.87440000       0.61570000       0.92850000
    75  H          0.37440000       0.88430000       0.07150000
    76  H          0.12560000       0.11570000       0.57150000
    77  H          0.37440000       0.61570000       0.57150000
    78  H          0.12560000       0.38430000       0.07150000
    79  H          0.62560000       0.11570000       0.92850000
    80  H          0.87440000       0.88430000       0.42850000
    81  C          0.44633000       0.29568150       0.42099130
    82  C          0.05367000       0.70431850       0.92099130
    83  C          0.55367000       0.79568150       0.07900870
    84  C          0.94633000       0.20431850       0.57900870
    85  C          0.55367000       0.70431850       0.57900870
    86  C          0.94633000       0.29568150       0.07900870
    87  C          0.44633000       0.20431850       0.92099130
    88  C          0.05367000       0.79568150       0.42099130
    89  H          0.50010000       0.23920000       0.42880000
    90  H         -0.00010000       0.76080000       0.92880000
    91  H          0.49990000       0.73920000       0.07120000
    92  H          0.00010000       0.26080000       0.57120000
    93  H          0.49990000       0.76080000       0.57120000
    94  H          0.00010000       0.23920000       0.07120000
    95  H          0.50010000       0.26080000       0.92880000
    96  H         -0.00010000       0.73920000       0.42880000
    97  C          0.29712000       0.29090140       0.40962120
    98  C          0.20288000       0.70909860       0.90962120
    99  C          0.70288000       0.79090140       0.09037880
   100  C          0.79712000       0.20909860       0.59037880
   101  C          0.70288000       0.70909860       0.59037880
   102  C          0.79712000       0.29090140       0.09037880
   103  C          0.29712000       0.20909860       0.90962120
   104  C          0.20288000       0.79090140       0.40962120
   105  C          0.80658000       0.57468150       0.39394130
   106  C          0.69342000       0.42531850       0.89394130
   107  C          0.19342000       0.07468150       0.10605870
   108  C          0.30658000       0.92531850       0.60605870
   109  C          0.19342000       0.42531850       0.60605870
   110  C          0.30658000       0.57468150       0.10605870
   111  C          0.80658000       0.92531850       0.89394130
   112  C          0.69342000       0.07468150       0.39394130
   113  H          0.73560000       0.59960000       0.42900000
   114  H          0.76440000       0.40040000       0.92900000
   115  H          0.26440000       0.09960000       0.07100000
   116  H          0.23560000       0.90040000       0.57100000
   117  H          0.26440000       0.40040000       0.57100000
   118  H          0.23560000       0.59960000       0.07100000
   119  H          0.73560000       0.90040000       0.92900000
   120  H          0.76440000       0.09960000       0.42900000
   121  C          0.82958000       0.61835150       0.32260140
   122  C          0.67042000       0.38164850       0.82260140
   123  C          0.17042000       0.11835150       0.17739860
   124  C          0.32958000       0.88164850       0.67739860
   125  C          0.17042000       0.38164850       0.67739860
   126  C          0.32958000       0.61835150       0.17739860
   127  C          0.82958000       0.88164850       0.82260140
   128  C          0.67042000       0.11835150       0.32260140
   129  C          0.93167000       0.57883150       0.27139130
   130  C          0.56833000       0.42116850       0.77139130
   131  C          0.06833000       0.07883150       0.22860870
   132  C          0.43167000       0.92116850       0.72860870
   133  C          0.06833000       0.42116850       0.72860870
   134  C          0.43167000       0.57883150       0.22860870
   135  C          0.93167000       0.92116850       0.77139130
   136  C          0.56833000       0.07883150       0.27139130
   137  H          0.94710000       0.60690000       0.22180000
   138  H          0.55290000       0.39310000       0.72180000
   139  H          0.05290000       0.10690000       0.27820000
   140  H          0.44710000       0.89310000       0.77820000
   141  H          0.05290000       0.39310000       0.77820000
   142  H          0.44710000       0.60690000       0.27820000
   143  H          0.94710000       0.89310000       0.72180000
   144  H          0.55290000       0.10690000       0.22180000
   145  C         -0.01072000       0.45806140       0.36415130
   146  C          0.51072000       0.54193860       0.86415130
   147  C          0.01072000       0.95806140       0.13584870
   148  C          0.48928000       0.04193860       0.63584870
   149  C          0.01072000       0.54193860       0.63584870
   150  C          0.48928000       0.45806140       0.13584870
   151  C         -0.01072000       0.04193860       0.86415130
   152  C          0.51072000       0.95806140       0.36415130
   153  C          0.88618000       0.49491150       0.41489130
   154  C          0.61382000       0.50508850       0.91489130
   155  C          0.11382000      -0.00508850       0.08510870
   156  C          0.38618000       0.00508850       0.58510870
   157  C          0.11382000       0.50508850       0.58510870
   158  C          0.38618000       0.49491150       0.08510870
   159  C          0.88618000       0.00508850       0.91489130
   160  C          0.61382000      -0.00508850       0.41489130
   161  H          0.86960000       0.46590000       0.46400000
   162  H          0.63040000       0.53410000       0.96400000
   163  H          0.13040000       0.96590000       0.03600000
   164  H          0.36960000       0.03410000       0.53600000
   165  H          0.13040000       0.53410000       0.53600000
   166  H          0.36960000       0.46590000       0.03600000
   167  H          0.86960000       0.03410000       0.96400000
   168  H          0.63040000       0.96590000       0.46400000
   169  C          0.74937000       0.70752160       0.30066150
   170  C          0.75063000       0.29247840       0.80066150
   171  C          0.25063000       0.20752160       0.19933850
   172  C          0.24937000       0.79247840       0.69933850
   173  C          0.25063000       0.29247840       0.69933850
   174  C          0.24937000       0.70752160       0.19933850
   175  C          0.74937000       0.79247840       0.80066150
   176  C          0.75063000       0.20752160       0.30066150
   177  H          0.68910000       0.72850000       0.34470000
   178  H          0.81090000       0.27150000       0.84470000
   179  H          0.31090000       0.22850000       0.15530000
   180  H          0.18910000       0.77150000       0.65530000
   181  H          0.31090000       0.27150000       0.65530000
   182  H          0.18910000       0.72850000       0.15530000
   183  H          0.68910000       0.77150000       0.84470000
   184  H          0.81090000       0.22850000       0.34470000
   185  H          0.68600000       0.69550000       0.25550000
   186  H          0.81400000       0.30450000       0.75550000
   187  H          0.31400000       0.19550000       0.24450000
   188  H          0.18600000       0.80450000       0.74450000
   189  H          0.31400000       0.30450000       0.74450000
   190  H          0.18600000       0.69550000       0.24450000
   191  H          0.68600000       0.80450000       0.75550000
   192  H          0.81400000       0.19550000       0.25550000
   193  H          0.82130000       0.75640000       0.28750000
   194  H          0.67870000       0.24360000       0.78750000
   195  H          0.17870000       0.25640000       0.21250000
   196  H          0.32130000       0.74360000       0.71250000
   197  H          0.17870000       0.24360000       0.71250000
   198  H          0.32130000       0.75640000       0.21250000
   199  H          0.82130000       0.74360000       0.78750000
   200  H          0.67870000       0.25640000       0.28750000
   201  C          0.01093000       0.49933150       0.29166130
   202  C          0.48907000       0.50066850       0.79166130
   203  C         -0.01093000      -0.00066850       0.20833870
   204  C          0.51093000       0.00066850       0.70833870
   205  C         -0.01093000       0.50066850       0.70833870
   206  C          0.51093000       0.49933150       0.20833870
   207  C          0.01093000       0.00066850       0.79166130
   208  C          0.48907000      -0.00066850       0.29166130
   209  H          0.07990000       0.47310000       0.25610000
   210  H          0.42010000       0.52690000       0.75610000
   211  H          0.92010000       0.97310000       0.24390000
   212  H          0.57990000       0.02690000       0.74390000
   213  H          0.92010000       0.52690000       0.74390000
   214  H          0.57990000       0.47310000       0.24390000
   215  H          0.07990000       0.02690000       0.75610000
   216  H          0.42010000       0.97310000       0.25610000
   217  H          0.25040000       0.52220000       0.40111700
   218  H          0.24960000       0.47780000       0.90111700
   219  H          0.74960000       0.02220000       0.09888300
   220  H          0.75040000       0.97780000       0.59888300
   221  H          0.74960000       0.47780000       0.59888300
   222  H          0.75040000       0.52220000       0.09888300
   223  H          0.25040000       0.97780000       0.90111700
   224  H          0.24960000       0.02220000       0.40111700
   225  H          0.03640000       0.31820000       0.38761800
   226  H          0.46360000       0.68180000       0.88761800
   227  H          0.96360000       0.81820000       0.11238200
   228  H          0.53640000       0.18180000       0.61238200
   229  H          0.96360000       0.68180000       0.61238200
   230  H          0.53640000       0.31820000       0.11238200
   231  H          0.03640000       0.18180000       0.88761800
   232  H          0.46360000       0.81820000       0.38761800
