data_DAMPEO01
_symmetry_space_group_name_H-M    'P1'
_symmetry_Int_Tables_number       1
loop_
_symmetry_equiv_pos_site_id
_symmetry_equiv_pos_as_xyz
1 x,y,z
_cell_length_a                   14.256516
_cell_length_b                   10.754215
_cell_length_c                   14.7693
_cell_angle_alpha                90.0
_cell_angle_beta                 90.0
_cell_angle_gamma                90.0
loop_
_atom_site_label
_atom_site_type_symbol
_atom_site_fract_x
_atom_site_fract_y
_atom_site_fract_z
     1  C          0.16998800       0.79818120       0.01265900
     2  C          0.33001200       0.20181880       0.51265900
     3  C          0.83001200       0.29818120       0.48734100
     4  C          0.66998800       0.70181880       0.98734100
     5  C          0.83001200       0.20181880       0.98734100
     6  C          0.66998800       0.79818120       0.48734100
     7  C          0.16998800       0.70181880       0.51265900
     8  C          0.33001200       0.29818120       0.01265900
     9  O          0.33332600       0.81392900       0.01808700
    10  O          0.16667400       0.18607100       0.51808700
    11  O          0.66667400       0.31392900       0.48191300
    12  O          0.83332600       0.68607100       0.98191300
    13  O          0.66667400       0.18607100       0.98191300
    14  O          0.83332600       0.81392900       0.48191300
    15  O          0.33332600       0.68607100       0.51808700
    16  O          0.16667400       0.31392900       0.01808700
    17  N          0.08905700       0.65684110       0.91215900
    18  N          0.41094300       0.34315890       0.41215900
    19  N          0.91094300       0.15684110       0.58784100
    20  N          0.58905700       0.84315890       0.08784100
    21  N          0.91094300       0.34315890       0.08784100
    22  N          0.58905700       0.65684110       0.58784100
    23  N          0.08905700       0.84315890       0.41215900
    24  N          0.41094300       0.15684110       0.91215900
    25  N          0.00111600       0.79094100       0.00302800
    26  N          0.49888400       0.20905900       0.50302800
    27  N         -0.00111600       0.29094100       0.49697200
    28  N          0.50111600       0.70905900      -0.00302800
    29  N         -0.00111600       0.20905900      -0.00302800
    30  N          0.50111600       0.79094100       0.49697200
    31  N          0.00111600       0.70905900       0.50302800
    32  N          0.49888400       0.29094100       0.00302800
    33  O          0.27368600       0.65280100       0.94177800
    34  O          0.22631400       0.34719900       0.44177800
    35  O          0.72631400       0.15280100       0.55822200
    36  O          0.77368600       0.84719900       0.05822200
    37  O          0.72631400       0.34719900       0.05822200
    38  O          0.77368600       0.65280100       0.55822200
    39  O          0.27368600       0.84719900       0.44177800
    40  O          0.22631400       0.15280100       0.94177800
    41  C          0.08559800       0.74847120       0.97531900
    42  C          0.41440200       0.25152880       0.47531900
    43  C          0.91440200       0.24847120       0.52468100
    44  C          0.58559800       0.75152880       0.02468100
    45  C          0.91440200       0.25152880       0.02468100
    46  C          0.58559800       0.74847120       0.52468100
    47  C          0.08559800       0.75152880       0.47531900
    48  C          0.41440200       0.24847120       0.97531900
    49  C          0.86658200       0.48553130       0.77002100
    50  C          0.63341800       0.51446870       0.27002100
    51  C          0.13341800       0.98553130       0.72997900
    52  C          0.36658200       0.01446870       0.22997900
    53  C          0.13341800       0.51446870       0.22997900
    54  C          0.36658200       0.48553130       0.72997900
    55  C          0.86658200       0.01446870       0.27002100
    56  C          0.63341800       0.98553130       0.77002100
    57  C         -0.00191900       0.88072120       0.06623100
    58  C          0.50191900       0.11927880       0.56623100
    59  C          0.00191900       0.38072120       0.43376900
    60  C          0.49808100       0.61927880       0.93376900
    61  C          0.00191900       0.11927880       0.93376900
    62  C          0.49808100       0.88072120       0.43376900
    63  C         -0.00191900       0.61927880       0.56623100
    64  C          0.50191900       0.38072120       0.06623100
    65  H          0.93950000       0.90870000       0.08500000
    66  H          0.56050000       0.09130000       0.58500000
    67  H          0.06050000       0.40870000       0.41500000
    68  H          0.43950000       0.59130000       0.91500000
    69  H          0.06050000       0.09130000       0.91500000
    70  H          0.43950000       0.90870000       0.41500000
    71  H          0.93950000       0.59130000       0.58500000
    72  H          0.56050000       0.40870000       0.08500000
    73  C          0.26304800       0.74730130       0.98664100
    74  C          0.23695200       0.25269870       0.48664100
    75  C          0.73695200       0.24730130       0.51335900
    76  C          0.76304800       0.75269870       0.01335900
    77  C          0.73695200       0.25269870       0.01335900
    78  C          0.76304800       0.74730130       0.51335900
    79  C          0.26304800       0.75269870       0.48664100
    80  C          0.23695200       0.24730130       0.98664100
    81  C          0.01254800       0.60178120       0.86504900
    82  C          0.48745200       0.39821880       0.36504900
    83  C          0.98745200       0.10178120       0.63495100
    84  C          0.51254800       0.89821880       0.13495100
    85  C          0.98745200       0.39821880       0.13495100
    86  C          0.51254800       0.60178120       0.63495100
    87  C          0.01254800       0.89821880       0.36504900
    88  C          0.48745200       0.10178120       0.86504900
    89  C          0.16337800       0.89146120       0.07658100
    90  C          0.33662200       0.10853880       0.57658100
    91  C          0.83662200       0.39146120       0.42341900
    92  C          0.66337800       0.60853880       0.92341900
    93  C          0.83662200       0.10853880       0.92341900
    94  C          0.66337800       0.89146120       0.42341900
    95  C          0.16337800       0.60853880       0.57658100
    96  C          0.33662200       0.39146120       0.07658100
    97  H          0.21770000       0.92610000       0.10070000
    98  H          0.28230000       0.07390000       0.60070000
    99  H          0.78230000       0.42610000       0.39930000
   100  H          0.71770000       0.57390000       0.89930000
   101  H          0.78230000       0.07390000       0.89930000
   102  H          0.71770000       0.92610000       0.39930000
   103  H          0.21770000       0.57390000       0.60070000
   104  H          0.28230000       0.42610000       0.10070000
   105  C          0.87636200       0.61402130       0.76935100
   106  C          0.62363800       0.38597870       0.26935100
   107  C          0.12363800       0.11402130       0.73064900
   108  C          0.37636200       0.88597870       0.23064900
   109  C          0.12363800       0.38597870       0.23064900
   110  C          0.37636200       0.61402130       0.73064900
   111  C          0.87636200       0.88597870       0.26935100
   112  C          0.62363800       0.11402130       0.76935100
   113  H          0.83360000       0.66210000       0.73720000
   114  H          0.66640000       0.33790000       0.23720000
   115  H          0.16640000       0.16210000       0.76280000
   116  H          0.33360000       0.83790000       0.26280000
   117  H          0.16640000       0.33790000       0.26280000
   118  H          0.33360000       0.66210000       0.76280000
   119  H          0.83360000       0.83790000       0.23720000
   120  H          0.66640000       0.16210000       0.73720000
   121  C          0.94889200       0.67199120       0.81586100
   122  C          0.55110800       0.32800880       0.31586100
   123  C          0.05110800       0.17199120       0.68413900
   124  C          0.44889200       0.82800880       0.18413900
   125  C          0.05110800       0.32800880       0.18413900
   126  C          0.44889200       0.67199120       0.68413900
   127  C          0.94889200       0.82800880       0.31586100
   128  C          0.55110800       0.17199120       0.81586100
   129  H          0.95480000       0.75810000       0.81400000
   130  H          0.54520000       0.24190000       0.31400000
   131  H          0.04520000       0.25810000       0.68600000
   132  H          0.45480000       0.74190000       0.18600000
   133  H          0.04520000       0.24190000       0.18600000
   134  H          0.45480000       0.75810000       0.68600000
   135  H          0.95480000       0.74190000       0.31400000
   136  H          0.54520000       0.25810000       0.81400000
   137  C          0.93222100       0.41644130       0.81799110
   138  C          0.56777900       0.58355870       0.31799110
   139  C          0.06777900       0.91644130       0.68200890
   140  C          0.43222100       0.08355870       0.18200890
   141  C          0.06777900       0.58355870       0.18200890
   142  C          0.43222100       0.41644130       0.68200890
   143  C          0.93222100       0.08355870       0.31799110
   144  C          0.56777900       0.91644130       0.81799110
   145  H          0.92760000       0.33020000       0.81850000
   146  H          0.57240000       0.66980000       0.31850000
   147  H          0.07240000       0.83020000       0.68150000
   148  H          0.42760000       0.16980000       0.18150000
   149  H          0.07240000       0.66980000       0.18150000
   150  H          0.42760000       0.33020000       0.68150000
   151  H          0.92760000       0.16980000       0.31850000
   152  H          0.57240000       0.83020000       0.81850000
   153  C          0.00468900       0.47357120       0.86529100
   154  C          0.49531100       0.52642880       0.36529100
   155  C         -0.00468900       0.97357120       0.63470900
   156  C          0.50468900       0.02642880       0.13470900
   157  C         -0.00468900       0.52642880       0.13470900
   158  C          0.50468900       0.47357120       0.63470900
   159  C          0.00468900       0.02642880       0.36529100
   160  C          0.49531100       0.97357120       0.86529100
   161  H          0.04780000       0.42560000       0.89710000
   162  H          0.45220000       0.57440000       0.39710000
   163  H          0.95220000       0.92560000       0.60290000
   164  H          0.54780000       0.07440000       0.10290000
   165  H          0.95220000       0.57440000       0.10290000
   166  H          0.54780000       0.42560000       0.60290000
   167  H          0.04780000       0.07440000       0.39710000
   168  H          0.45220000       0.92560000       0.89710000
   169  C          0.07627800       0.93394120       0.10507100
   170  C          0.42372200       0.06605880       0.60507100
   171  C          0.92372200       0.43394120       0.39492900
   172  C          0.57627800       0.56605880       0.89492900
   173  C          0.92372200       0.06605880       0.89492900
   174  C          0.57627800       0.93394120       0.39492900
   175  C          0.07627800       0.56605880       0.60507100
   176  C          0.42372200       0.43394120       0.10507100
   177  H          0.07090000      -0.00410000       0.14870000
   178  H          0.42910000       0.00410000       0.64870000
   179  H          0.92910000       0.49590000       0.35130000
   180  H          0.57090000       0.50410000       0.85130000
   181  H          0.92910000       0.00410000       0.85130000
   182  H          0.57090000      -0.00410000       0.35130000
   183  H          0.07090000       0.50410000       0.64870000
   184  H          0.42910000       0.49590000       0.14870000
   185  C          0.78656100       0.42285150       0.72084120
   186  C          0.71343900       0.57714850       0.22084120
   187  C          0.21343900       0.92285150       0.77915880
   188  C          0.28656100       0.07714850       0.27915880
   189  C          0.21343900       0.57714850       0.27915880
   190  C          0.28656100       0.42285150       0.77915880
   191  C          0.78656100       0.07714850       0.22084120
   192  C          0.71343900       0.92285150       0.72084120
   193  H          0.72970000       0.43370000       0.75470000
   194  H          0.77030000       0.56630000       0.25470000
   195  H          0.27030000       0.93370000       0.74530000
   196  H          0.22970000       0.06630000       0.24530000
   197  H          0.27030000       0.56630000       0.24530000
   198  H          0.22970000       0.43370000       0.74530000
   199  H          0.72970000       0.06630000       0.25470000
   200  H          0.77030000       0.93370000       0.75470000
   201  H          0.79970000       0.33570000       0.71470000
   202  H          0.70030000       0.66430000       0.21470000
   203  H          0.20030000       0.83570000       0.78530000
   204  H          0.29970000       0.16430000       0.28530000
   205  H          0.20030000       0.66430000       0.28530000
   206  H          0.29970000       0.33570000       0.78530000
   207  H          0.79970000       0.16430000       0.21470000
   208  H          0.70030000       0.83570000       0.71470000
   209  H          0.77940000       0.45930000       0.66190000
   210  H          0.72060000       0.54070000       0.16190000
   211  H          0.22060000       0.95930000       0.83810000
   212  H          0.27940000       0.04070000       0.33810000
   213  H          0.22060000       0.54070000       0.33810000
   214  H          0.27940000       0.45930000       0.83810000
   215  H          0.77940000       0.04070000       0.16190000
   216  H          0.72060000       0.95930000       0.66190000
   217  H          0.14411100       0.62511500       0.90691100
   218  H          0.35588900       0.37488500       0.40691100
   219  H          0.85588900       0.12511500       0.59308900
   220  H          0.64411100       0.87488500       0.09308900
   221  H          0.85588900       0.37488500       0.09308900
   222  H          0.64411100       0.62511500       0.59308900
   223  H          0.14411100       0.87488500       0.40691100
   224  H          0.35588900       0.12511500       0.90691100
   225  H          0.39451600       0.77120000       0.01261600
   226  H          0.10548400       0.22880000       0.51261600
   227  H          0.60548400       0.27120000       0.48738400
   228  H          0.89451600       0.72880000       0.98738400
   229  H          0.60548400       0.22880000       0.98738400
   230  H          0.89451600       0.77120000       0.48738400
   231  H          0.39451600       0.72880000       0.51261600
   232  H          0.10548400       0.27120000       0.01261600
