data_DANGAL13
_symmetry_space_group_name_H-M    'P1'
_symmetry_Int_Tables_number       1
loop_
_symmetry_equiv_pos_site_id
_symmetry_equiv_pos_as_xyz
1 x,y,z
_cell_length_a                   5.04162
_cell_length_b                   5.39883
_cell_length_c                   12.28016
_cell_angle_alpha                90.0
_cell_angle_beta                 94.3354
_cell_angle_gamma                90.0
loop_
_atom_site_label
_atom_site_type_symbol
_atom_site_fract_x
_atom_site_fract_y
_atom_site_fract_z
     1  O          0.25272170       0.29926180       0.55900700
     2  O          0.74727830       0.79926180       0.94099300
     3  O          0.74727830       0.70073820       0.44099300
     4  O          0.25272170       0.20073820       0.05900700
     5  H          0.35550600       0.17787400       0.56997400
     6  H          0.64449400       0.67787400       0.93002600
     7  H          0.64449400       0.82212600       0.43002600
     8  H          0.35550600       0.32212600       0.06997400
     9  O          0.44310190       0.09994180       0.36254800
    10  O          0.55689810       0.59994180       0.13745200
    11  O          0.55689810       0.90005820       0.63745200
    12  O          0.44310190       0.40005820       0.86254800
    13  C          0.34412000       0.35122000       0.36823110
    14  C          0.65588000       0.85122000       0.13176890
    15  C          0.65588000       0.64878000       0.63176890
    16  C          0.34412000       0.14878000       0.86823110
    17  H          0.39261100       0.46520500       0.30870300
    18  H          0.60738900       0.96520500       0.19129700
    19  H          0.60738900       0.53479500       0.69129700
    20  H          0.39261100       0.03479500       0.80870300
    21  C          0.35652000       0.46112000       0.48151100
    22  C          0.64348000       0.96112000       0.01848900
    23  C          0.64348000       0.53888000       0.51848900
    24  C          0.35652000       0.03888000       0.98151100
    25  H          0.24454900       0.61419600       0.47804100
    26  H          0.75545100       0.11419600       0.02195900
    27  H          0.75545100       0.38580400       0.52195900
    28  H          0.24454900       0.88580400       0.97804100
    29  C          0.16203000       0.14983000       0.33493110
    30  C          0.83797000       0.64983000       0.16506890
    31  C          0.83797000       0.85017000       0.66506890
    32  C          0.16203000       0.35017000       0.83493110
    33  H          0.03358800       0.09554500       0.38720000
    34  H          0.96641200       0.59554500       0.11280000
    35  H          0.96641200       0.90445500       0.61280000
    36  H          0.03358800       0.40445500       0.88720000
    37  H          0.09577500       0.14063600       0.25706200
    38  H          0.90422500       0.64063600       0.24293800
    39  H          0.90422500       0.85936400       0.74293800
    40  H          0.09577500       0.35936400       0.75706200
