data_DANGAL11
_symmetry_space_group_name_H-M    'P1'
_symmetry_Int_Tables_number       1
loop_
_symmetry_equiv_pos_site_id
_symmetry_equiv_pos_as_xyz
1 x,y,z
_cell_length_a                   4.9891
_cell_length_b                   7.9571
_cell_length_c                   9.4961
_cell_angle_alpha                113.751
_cell_angle_beta                 98.901
_cell_angle_gamma                78.901
loop_
_atom_site_label
_atom_site_type_symbol
_atom_site_fract_x
_atom_site_fract_y
_atom_site_fract_z
     1  O          0.41400000       0.21040000       0.43520000
     2  O          0.58600000       0.78960000       0.56480000
     3  O          0.01650000       0.41010000       0.65210000
     4  O         -0.01650000       0.58990000       0.34790000
     5  C          0.23600000       0.07760000       0.41610000
     6  C          0.76400000       0.92240000       0.58390000
     7  C          0.12620000       0.24420000       0.38630000
     8  C          0.87380000       0.75580000       0.61370000
     9  C          0.96740000       0.40960000       0.49980000
    10  C          0.03260000       0.59040000       0.50020000
    11  H          0.21990000       0.40090000       0.68790000
    12  H          0.78010000       0.59910000       0.31210000
    13  H          0.28290000       0.96210000       0.33790000
    14  H          0.71710000       0.03790000       0.66210000
    15  H          0.16610000       0.06750000       0.52120000
    16  H          0.83390000       0.93250000       0.47880000
    17  H          0.10980000       0.22260000       0.28300000
    18  H          0.89020000       0.77740000       0.71700000
    19  H          0.77070000       0.40670000       0.45840000
    20  H          0.22930000       0.59330000       0.54160000
    21  O          0.76380000       0.80470000       0.96610000
    22  O          0.23620000       0.19530000       0.03390000
    23  O          0.56180000       0.42660000       0.80060000
    24  O          0.43820000       0.57340000       0.19940000
    25  C          0.70820000       0.86060000       0.12390000
    26  C          0.29180000       0.13940000       0.87610000
    27  C          0.54700000       0.73310000      -0.00050000
    28  C          0.45300000       0.26690000       0.00050000
    29  C          0.59890000       0.52930000       0.96350000
    30  C          0.40110000       0.47070000       0.03650000
    31  H          0.64670000       0.40700000       0.73800000
    32  H          0.35330000       0.59300000       0.26200000
    33  H          0.89180000       0.80430000       0.18910000
    34  H          0.10820000       0.19570000       0.81090000
    35  H          0.67210000      -0.00230000       0.16190000
    36  H          0.32790000       0.00230000       0.83810000
    37  H          0.35730000       0.78260000       0.97120000
    38  H          0.64270000       0.21740000       0.02880000
    39  H          0.78560000       0.49870000       0.01230000
    40  H          0.21440000       0.50130000      -0.01230000
