data_DANGAL14
_symmetry_space_group_name_H-M    'P1'
_symmetry_Int_Tables_number       1
loop_
_symmetry_equiv_pos_site_id
_symmetry_equiv_pos_as_xyz
1 x,y,z
_cell_length_a                   8.26783
_cell_length_b                   16.18668
_cell_length_c                   5.11862
_cell_angle_alpha                90.0
_cell_angle_beta                 90.0
_cell_angle_gamma                90.0
loop_
_atom_site_label
_atom_site_type_symbol
_atom_site_fract_x
_atom_site_fract_y
_atom_site_fract_z
     1  O          0.53233110       0.62883500       0.15808150
     2  O          0.96766890       0.87116500       0.15808150
     3  O          0.46766890       0.12883500       0.34191850
     4  O          0.03233110       0.37116500       0.34191850
     5  O          0.46766890       0.37116500       0.84191850
     6  O          0.03233110       0.12883500       0.84191850
     7  O          0.53233110       0.87116500       0.65808150
     8  O          0.96766890       0.62883500       0.65808150
     9  O          0.30904900       0.55531600       0.49582140
    10  O          0.19095100       0.94468400       0.49582140
    11  O          0.69095100       0.05531600       0.00417860
    12  O          0.80904900       0.44468400       0.00417860
    13  O          0.69095100       0.44468400       0.50417860
    14  O          0.80904900       0.05531600       0.50417860
    15  O          0.30904900       0.94468400      -0.00417860
    16  O          0.19095100       0.55531600      -0.00417860
    17  H          0.25770000       0.56060000       0.63650000
    18  H          0.24230000       0.93940000       0.63650000
    19  H          0.74230000       0.06060000       0.86350000
    20  H          0.75770000       0.43940000       0.86350000
    21  H          0.74230000       0.43940000       0.36350000
    22  H          0.75770000       0.06060000       0.36350000
    23  H          0.25770000       0.93940000       0.13650000
    24  H          0.24230000       0.56060000       0.13650000
    25  C          0.50702170       0.68983800       0.35972000
    26  C         -0.00702170       0.81016200       0.35972000
    27  C          0.49297830       0.18983800       0.14028000
    28  C          0.00702170       0.31016200       0.14028000
    29  C          0.49297830       0.31016200       0.64028000
    30  C          0.00702170       0.18983800       0.64028000
    31  C          0.50702170       0.81016200       0.85972000
    32  C         -0.00702170       0.68983800       0.85972000
    33  H          0.39440000       0.70120000       0.41450000
    34  H          0.10560000       0.79880000       0.41450000
    35  H          0.60560000       0.20120000       0.08550000
    36  H          0.89440000       0.29880000       0.08550000
    37  H          0.60560000       0.29880000       0.58550000
    38  H          0.89440000       0.20120000       0.58550000
    39  H          0.39440000       0.79880000       0.91450000
    40  H          0.10560000       0.70120000       0.91450000
    41  H          0.58000000       0.73830000       0.36310000
    42  H          0.92000000       0.76170000       0.36310000
    43  H          0.42000000       0.23830000       0.13690000
    44  H          0.08000000       0.26170000       0.13690000
    45  H          0.42000000       0.26170000       0.63690000
    46  H          0.08000000       0.23830000       0.63690000
    47  H          0.58000000       0.76170000       0.86310000
    48  H          0.92000000       0.73830000       0.86310000
    49  C          0.57552140       0.60943700       0.42522000
    50  C          0.92447860       0.89056300       0.42522000
    51  C          0.42447860       0.10943700       0.07478000
    52  C          0.07552140       0.39056300       0.07478000
    53  C          0.42447860       0.39056300       0.57478000
    54  C          0.07552140       0.10943700       0.57478000
    55  C          0.57552140       0.89056300       0.92522000
    56  C          0.92447860       0.60943700       0.92522000
    57  H          0.69380000       0.60860000       0.46560000
    58  H          0.80620000       0.89140000       0.46560000
    59  H          0.30620000       0.10860000       0.03440000
    60  H          0.19380000       0.39140000       0.03440000
    61  H          0.30620000       0.39140000       0.53440000
    62  H          0.19380000       0.10860000       0.53440000
    63  H          0.69380000       0.89140000       0.96560000
    64  H          0.80620000       0.60860000       0.96560000
    65  C          0.47538120       0.54262700       0.55105190
    66  C          0.02461880       0.95737300       0.55105190
    67  C          0.52461880       0.04262700       0.94894810
    68  C          0.97538120       0.45737300       0.94894810
    69  C          0.52461880       0.45737300       0.44894810
    70  C          0.97538120       0.04262700       0.44894810
    71  C          0.47538120       0.95737300       0.05105190
    72  C          0.02461880       0.54262700       0.05105190
    73  H          0.49210000       0.54440000       0.74450000
    74  H          0.00790000       0.95560000       0.74450000
    75  H          0.50790000       0.04440000       0.75550000
    76  H         -0.00790000       0.45560000       0.75550000
    77  H          0.50790000       0.45560000       0.25550000
    78  H         -0.00790000       0.04440000       0.25550000
    79  H          0.49210000       0.95560000       0.24450000
    80  H          0.00790000       0.54440000       0.24450000
