data_DAVMUJ02
_symmetry_space_group_name_H-M    'P1'
_symmetry_Int_Tables_number       1
loop_
_symmetry_equiv_pos_site_id
_symmetry_equiv_pos_as_xyz
1 x,y,z
_cell_length_a                   5.18462
_cell_length_b                   8.27503
_cell_length_c                   16.14615
_cell_angle_alpha                94.8692
_cell_angle_beta                 92.5742
_cell_angle_gamma                90.2322
loop_
_atom_site_label
_atom_site_type_symbol
_atom_site_fract_x
_atom_site_fract_y
_atom_site_fract_z
     1  O          0.29523000       0.67853000       0.39860120
     2  O          0.70477000       0.32147000       0.60139880
     3  O          0.94245000       0.86023000       0.90608120
     4  O          0.05755000       0.13977000       0.09391880
     5  N          0.72484000       0.68833000       0.42211130
     6  N          0.27516000       0.31167000       0.57788870
     7  H          0.87250400       0.69076000       0.39999400
     8  H          0.12749600       0.30924000       0.60000600
     9  C          0.55394000       0.67163000       0.28099140
    10  C          0.44606000       0.32837000       0.71900860
    11  C          0.51414000       0.67973000       0.37180150
    12  C          0.48586000       0.32027000       0.62819850
    13  C          0.75105000       0.75373000       0.24710150
    14  C          0.24895000       0.24627000       0.75289850
    15  H          0.86969900       0.81427400       0.28192000
    16  H          0.13030100       0.18572600       0.71808000
    17  C          0.93735000       0.84133000       0.82059160
    18  C          0.06265000       0.15867000       0.17940840
    19  C          0.89956000       0.82433000       0.64734170
    20  C          0.10044000       0.17567000       0.35265830
    21  C          0.38165000       0.58164000       0.22789170
    22  C          0.61835000       0.41836000       0.77210830
    23  H          0.24667600       0.52637000       0.24940000
    24  H          0.75332400       0.47363000       0.75060000
    25  C          0.77286000       0.74644000       0.16253170
    26  C          0.22714000       0.25356000       0.83746830
    27  H          0.90427600       0.80351800       0.14034300
    28  H          0.09572400       0.19648200       0.85965700
    29  C          0.10856000       0.74954000       0.77517180
    30  C          0.89144000       0.25046000       0.22482820
    31  H          0.23783600       0.69286500       0.80177900
    32  H          0.76216400       0.30713500       0.19822100
    33  C          0.74616000       0.92094000       0.78070180
    34  C          0.25384000       0.07906000       0.21929820
    35  H          0.62745400       0.98161800       0.81147200
    36  H          0.37254600       0.01838200       0.18852800
    37  C          0.72716000       0.91234000       0.69544180
    38  C          0.27284000       0.08766000       0.30455820
    39  H          0.59459400       0.96723600       0.66936200
    40  H          0.40540600       0.03276400       0.33063800
    41  C          0.08716000       0.74204000       0.68920190
    42  C          0.91284000       0.25796000       0.31079810
    43  H          0.20362900       0.67903900       0.65866300
    44  H          0.79637100       0.32096100       0.34133700
    45  C          0.60256000       0.65574000       0.11073180
    46  C          0.39744000       0.34426000       0.88926820
    47  H          0.61888400       0.65028900       0.05343700
    48  H          0.38111600       0.34971100       0.94656300
    49  C          0.72036000       0.69394000       0.51251170
    50  C          0.27964000       0.30606000       0.48748830
    51  H          0.54406900       0.70942200       0.52912400
    52  H          0.45593100       0.29057800       0.47087600
    53  H          0.77895100       0.59079000       0.53049400
    54  H          0.22104900       0.40921000       0.46950600
    55  C          0.40876000       0.57334000       0.14325190
    56  C          0.59124000       0.42666000       0.85674810
    57  H          0.29370600       0.51076600       0.10795100
    58  H          0.70629400       0.48923400       0.89204900
    59  C          0.88027000       0.82164000       0.55329190
    60  C          0.11973000       0.17836000       0.44670810
    61  H          0.81244800       0.92484000       0.53829600
    62  H          0.18755200       0.07516000       0.46170400
    63  H          0.05251300       0.81103500       0.53253300
    64  H          0.94748700       0.18896500       0.46746700
    65  C          0.16028000       0.80445000       0.95022000
    66  C          0.83972000       0.19555000       0.04978000
    67  H          0.31415800       0.84609900       0.92858700
    68  H          0.68584200       0.15390100       0.07141300
    69  H          0.16241600       0.68799600       0.94404400
    70  H          0.83758400       0.31200400       0.05595600
    71  H          0.15238400       0.84100700       0.00806500
    72  H          0.84761600       0.15899300      -0.00806500
