data_DAVMUJ01
_symmetry_space_group_name_H-M    'P1'
_symmetry_Int_Tables_number       1
loop_
_symmetry_equiv_pos_site_id
_symmetry_equiv_pos_as_xyz
1 x,y,z
_cell_length_a                   8.00749
_cell_length_b                   5.14666
_cell_length_c                   32.0754
_cell_angle_alpha                90.0
_cell_angle_beta                 96.5384
_cell_angle_gamma                90.0
loop_
_atom_site_label
_atom_site_type_symbol
_atom_site_fract_x
_atom_site_fract_y
_atom_site_fract_z
     1  O          0.40014110       0.46294170       0.54561200
     2  O          0.09985890       0.96294170       0.95438800
     3  O          0.59985890       0.53705830       0.45438800
     4  O          0.90014110       0.03705830       0.04561200
     5  N          0.57850120       0.33542000       0.78903300
     6  N          0.92149880       0.83542000       0.71096700
     7  N          0.42149880       0.66458000       0.21096700
     8  N          0.07850120       0.16458000       0.28903300
     9  H          0.59010000       0.17581000       0.79879000
    10  H          0.90990000       0.67581000       0.70121000
    11  H          0.40990000       0.82419000       0.20121000
    12  H          0.09010000       0.32419000       0.29879000
    13  O          0.55334110       0.76238160       0.80483300
    14  O          0.94665890       0.26238160       0.69516700
    15  O          0.44665890       0.23761840       0.19516700
    16  O          0.05334110       0.73761840       0.30483300
    17  C          0.32022160       0.68523000       0.52568400
    18  C          0.17977840       0.18523000       0.97431600
    19  C          0.67977840       0.31477000       0.47431600
    20  C          0.82022160       0.81477000       0.02568400
    21  H          0.34302800       0.69135800       0.49631800
    22  H          0.15697200       0.19135800       0.00368200
    23  H          0.65697200       0.30864200       0.50368200
    24  H          0.84302800       0.80864200      -0.00368200
    25  H          0.36404800       0.84287000       0.54017200
    26  H          0.13595200       0.34287000       0.95982800
    27  H          0.63595200       0.15713000       0.45982800
    28  H          0.86404800       0.65713000       0.04017200
    29  H          0.19866400       0.67419500       0.52685100
    30  H          0.30133600       0.17419500       0.97314900
    31  H          0.80133600       0.32580500       0.47314900
    32  H          0.69866400       0.82580500       0.02685100
    33  C          0.39443140       0.43712000       0.58813400
    34  C          0.10556860       0.93712000       0.91186600
    35  C          0.60556860       0.56288000       0.41186600
    36  C          0.89443140       0.06288000       0.08813400
    37  C          0.30720140       0.60102000       0.61236400
    38  C          0.19279860       0.10102000       0.88763600
    39  C          0.69279860       0.39898000       0.38763600
    40  C          0.80720140       0.89898000       0.11236400
    41  H          0.24623500       0.74491900       0.59989600
    42  H          0.25376500       0.24491900       0.90010400
    43  H          0.75376500       0.25508100       0.40010400
    44  H          0.74623500       0.75508100       0.09989600
    45  C          0.31007140       0.55192000       0.65518400
    46  C          0.18992860       0.05192000       0.84481600
    47  C          0.68992860       0.44808000       0.34481600
    48  C          0.81007140       0.94808000       0.15518400
    49  H          0.25126900       0.66532500       0.67176900
    50  H          0.24873100       0.16532500       0.82823100
    51  H          0.74873100       0.33467500       0.32823100
    52  H          0.75126900       0.83467500       0.17176900
    53  C          0.39660140       0.34162000       0.67423400
    54  C          0.10339860       0.84162000       0.82576600
    55  C          0.60339860       0.65838000       0.32576600
    56  C          0.89660140       0.15838000       0.17423400
    57  C          0.40130150       0.28963000       0.72066400
    58  C          0.09869850       0.78963000       0.77933600
    59  C          0.59869850       0.71037000       0.27933600
    60  C          0.90130150       0.21037000       0.22066400
    61  H          0.38635100       0.10130100       0.72535000
    62  H          0.11364900       0.60130100       0.77465000
    63  H          0.61364900       0.89869900       0.27465000
    64  H          0.88635100       0.39869900       0.22535000
    65  H          0.30766600       0.38285500       0.73175300
    66  H          0.19233400       0.88285500       0.76824700
    67  H          0.69233400       0.61714500       0.26824700
    68  H          0.80766600       0.11714500       0.23175300
    69  C          0.56699150       0.37823000       0.74387300
    70  C          0.93300850       0.87823000       0.75612700
    71  C          0.43300850       0.62177000       0.25612700
    72  C          0.06699150       0.12177000       0.24387300
    73  H          0.65977600       0.28381500       0.73258400
    74  H          0.84022400       0.78381500       0.76741600
    75  H          0.34022400       0.71618500       0.26741600
    76  H          0.15977600       0.21618500       0.23258400
    77  H          0.58188900       0.56572700       0.73852400
    78  H          0.91811100       0.06572700       0.76147600
    79  H          0.41811100       0.43427300       0.26147600
    80  H          0.08188900       0.93427300       0.23852400
    81  C          0.57185130       0.53352000       0.81624400
    82  C          0.92814870       0.03352000       0.68375600
    83  C          0.42814870       0.46648000       0.18375600
    84  C          0.07185130       0.96648000       0.31624400
    85  C          0.59161140       0.46332000       0.86200400
    86  C          0.90838860       0.96332000       0.63799600
    87  C          0.40838860       0.53668000       0.13799600
    88  C          0.09161140       0.03668000       0.36200400
    89  C          0.68483140       0.24982000       0.87797400
    90  C          0.81516860       0.74982000       0.62202600
    91  C          0.31516860       0.75018000       0.12202600
    92  C          0.18483140       0.25018000       0.37797400
    93  H          0.73279500       0.13455700       0.85949100
    94  H          0.76720500       0.63455700       0.64050900
    95  H          0.26720500       0.86544300       0.14050900
    96  H          0.23279500       0.36544300       0.35949100
    97  C          0.70756150       0.20582000       0.92105400
    98  C          0.79243850       0.70582000       0.57894600
    99  C          0.29243850       0.79418000       0.07894600
   100  C          0.20756150       0.29418000       0.42105400
   101  H          0.77273400       0.06183400       0.93197600
   102  H          0.72726600       0.56183400       0.56802400
   103  H          0.22726600       0.93816600       0.06802400
   104  H          0.27273400       0.43816600       0.43197600
   105  C          0.63549150       0.37113000       0.94813400
   106  C          0.86450850       0.87113000       0.55186600
   107  C          0.36450850       0.62887000       0.05186600
   108  C          0.13549150       0.12887000       0.44813400
   109  H          0.65127600       0.34028400       0.97751800
   110  H          0.84872400       0.84028400       0.52248200
   111  H          0.34872400       0.65971600       0.02248200
   112  H          0.15127600       0.15971600       0.47751800
   113  C          0.48544150       0.22892000       0.60681400
   114  C          0.01455850       0.72892000       0.89318600
   115  C          0.51455850       0.77108000       0.39318600
   116  C         -0.01455850       0.27108000       0.10681400
   117  H          0.54750500       0.11913600       0.59041300
   118  H          0.95249500       0.61913600       0.90958700
   119  H          0.45249500       0.88086400       0.40958700
   120  H          0.04750500       0.38086400       0.09041300
   121  C          0.48539150       0.18232000       0.64925400
   122  C          0.01460850       0.68232000       0.85074600
   123  C          0.51460850       0.81768000       0.35074600
   124  C         -0.01460850       0.31768000       0.14925400
   125  H          0.54701800       0.03882000       0.66167400
   126  H          0.95298200       0.53882000       0.83832600
   127  H          0.45298200       0.96118000       0.33832600
   128  H          0.04701800       0.46118000       0.16167400
   129  C          0.51972140       0.62902000       0.88936400
   130  C          0.98027860       0.12902000       0.61063600
   131  C          0.48027860       0.37098000       0.11063600
   132  C          0.01972140       0.87098000       0.38936400
   133  H          0.45627200       0.77502100       0.87860000
   134  H          0.04372800       0.27502100       0.62140000
   135  H          0.54372800       0.22497900       0.12140000
   136  H          0.95627200       0.72497900       0.37860000
   137  C          0.54032160       0.58173000       0.93223400
   138  C          0.95967840       0.08173000       0.56776600
   139  C          0.45967840       0.41827000       0.06776600
   140  C          0.04032160       0.91827000       0.43223400
   141  H          0.48930100       0.69331700       0.95068200
   142  H          0.01069900       0.19331700       0.54931800
   143  H          0.51069900       0.30668300       0.04931800
   144  H         -0.01069900       0.80668300       0.45068200
