data_DAVMUJ
_symmetry_space_group_name_H-M    'P1'
_symmetry_Int_Tables_number       1
loop_
_symmetry_equiv_pos_site_id
_symmetry_equiv_pos_as_xyz
1 x,y,z
_cell_length_a                   5.150813
_cell_length_b                   8.1752
_cell_length_c                   16.3214
_cell_angle_alpha                99.1564
_cell_angle_beta                 95.3954
_cell_angle_gamma                90.5635
loop_
_atom_site_label
_atom_site_type_symbol
_atom_site_fract_x
_atom_site_fract_y
_atom_site_fract_z
     1  N          0.81845000       0.28133000       0.42304150
     2  N          0.18155000       0.71867000       0.57695850
     3  H          0.96190000       0.26950000       0.40000000
     4  H          0.03810000       0.73050000       0.60000000
     5  C          0.74908000       0.17794000       0.55542000
     6  C          0.25092000       0.82206000       0.44458000
     7  H          0.56400000       0.15440000       0.54070000
     8  H          0.43600000       0.84560000       0.45930000
     9  H          0.84210000       0.07910000       0.53540000
    10  H          0.15790000       0.92090000       0.46460000
    11  C          0.83277000       0.31884000       0.51324190
    12  C          0.16723000       0.68116000       0.48675810
    13  H          0.72400000       0.41280000       0.52860000
    14  H          0.27600000       0.58720000       0.47140000
    15  H          0.01100000       0.35160000       0.53440000
    16  H         -0.01100000       0.64840000       0.46560000
    17  C          0.59506000       0.26414000       0.37408190
    18  C          0.40494000       0.73586000       0.62591810
    19  O          0.38134000       0.27133000       0.40267140
    20  O          0.61866000       0.72867000       0.59732860
    21  C          0.80196000       0.21894000       0.64852000
    22  C          0.19804000       0.78106000       0.35148000
    23  C          0.01087000       0.15644000       0.69102000
    24  C         -0.01087000       0.84356000       0.30898000
    25  H          0.12040000       0.08490000       0.66120000
    26  H          0.87960000       0.91510000       0.33880000
    27  C          0.06447000       0.19574000       0.77682000
    28  C          0.93553000       0.80426000       0.22318000
    29  H          0.20680000       0.15080000       0.80400000
    30  H          0.79320000       0.84920000       0.19600000
    31  C          0.90397000       0.30234000       0.82112000
    32  C          0.09603000       0.69766000       0.17888000
    33  O          0.93646000       0.34994000       0.90599140
    34  O          0.06354000       0.65006000       0.09400860
    35  C          0.69637000       0.36865000       0.77962000
    36  C          0.30363000       0.63135000       0.22038000
    37  H          0.58920000       0.44220000       0.80930000
    38  H          0.41080000       0.55780000       0.19070000
    39  C          0.64637000       0.32734000       0.69552000
    40  C          0.35363000       0.67266000       0.30448000
    41  H          0.50400000       0.37300000       0.66860000
    42  H          0.49600000       0.62700000       0.33140000
    43  C          0.61496000       0.23554000       0.28225190
    44  C          0.38504000       0.76446000       0.71774810
    45  C          0.42867000       0.13514000       0.23092000
    46  C          0.57133000       0.86486000       0.76908000
    47  H          0.29560000       0.08590000       0.25400000
    48  H          0.70440000       0.91410000       0.74600000
    49  C          0.43848000       0.10765000       0.14602000
    50  C          0.56152000       0.89235000       0.85398000
    51  H          0.31580000       0.03680000       0.11210000
    52  H          0.68420000       0.96320000       0.88790000
    53  C          0.62868000       0.18425000       0.11092000
    54  C          0.37132000       0.81575000       0.88908000
    55  H          0.63210000       0.16790000       0.05330000
    56  H          0.36790000       0.83210000       0.94670000
    57  C          0.81327000       0.28495000       0.16132000
    58  C          0.18673000       0.71505000       0.83868000
    59  H          0.94340000       0.33610000       0.13790000
    60  H          0.05660000       0.66390000       0.86210000
    61  C          0.80597000       0.31014000       0.24632000
    62  C          0.19403000       0.68986000       0.75368000
    63  H          0.93180000       0.37860000       0.28010000
    64  H          0.06820000       0.62140000       0.71990000
    65  C          0.16201000       0.29857000       0.94953000
    66  C          0.83799000       0.70143000       0.05047000
    67  H          0.16270000       0.34120000       0.00790000
    68  H          0.83730000       0.65880000      -0.00790000
    69  H          0.31390000       0.33960000       0.92880000
    70  H          0.68610000       0.66040000       0.07120000
    71  H          0.16310000       0.17960000       0.94170000
    72  H          0.83690000       0.82040000       0.05830000
