data_DAXTIH
_symmetry_space_group_name_H-M    'P1'
_symmetry_Int_Tables_number       1
loop_
_symmetry_equiv_pos_site_id
_symmetry_equiv_pos_as_xyz
1 x,y,z
_cell_length_a                   7.62975
_cell_length_b                   12.58898
_cell_length_c                   18.206411
_cell_angle_alpha                90.0
_cell_angle_beta                 95.4671
_cell_angle_gamma                90.0
loop_
_atom_site_label
_atom_site_type_symbol
_atom_site_fract_x
_atom_site_fract_y
_atom_site_fract_z
     1  O          0.34220160       0.69284900       0.00832600
     2  O          0.65779840       0.19284900       0.49167400
     3  O          0.65779840       0.30715100       0.99167400
     4  O          0.34220160       0.80715100       0.50832600
     5  C          0.58256190       0.49356120       0.76918800
     6  C          0.41743810      -0.00643880       0.73081200
     7  C          0.41743810       0.50643880       0.23081200
     8  C          0.58256190       0.00643880       0.26918800
     9  C          0.24635170       0.25661110       0.78821800
    10  C          0.75364830       0.75661110       0.71178200
    11  C          0.75364830       0.74338890       0.21178200
    12  C          0.24635170       0.24338890       0.28821800
    13  H          0.24520000       0.20250000       0.82690000
    14  H          0.75480000       0.70250000       0.67310000
    15  H          0.75480000       0.79750000       0.17310000
    16  H          0.24520000       0.29750000       0.32690000
    17  H          0.34620000       0.30460000       0.79980000
    18  H          0.65380000       0.80460000       0.70020000
    19  H          0.65380000       0.69540000       0.20020000
    20  H          0.34620000       0.19540000       0.29980000
    21  H          0.25760000       0.22200000       0.74070000
    22  H          0.74240000       0.72200000       0.75930000
    23  H          0.74240000       0.77800000       0.25930000
    24  H          0.25760000       0.27800000       0.24070000
    25  C          0.21523180       0.47609130       0.47136700
    26  C          0.78476820       0.97609130       0.02863300
    27  C          0.78476820       0.52390870       0.52863300
    28  C          0.21523180       0.02390870       0.97136700
    29  H          0.16960000       0.54630000       0.45620000
    30  H          0.83040000       0.04630000       0.04380000
    31  H          0.83040000       0.45370000       0.54380000
    32  H          0.16960000       0.95370000       0.95620000
    33  H          0.11760000       0.42540000       0.47040000
    34  H          0.88240000       0.92540000       0.02960000
    35  H          0.88240000       0.57460000       0.52960000
    36  H          0.11760000       0.07460000       0.97040000
    37  H          0.29930000       0.45240000       0.43730000
    38  H          0.70070000       0.95240000       0.06270000
    39  H          0.70070000       0.54760000       0.56270000
    40  H          0.29930000       0.04760000       0.93730000
    41  C          0.79152000       0.35921120       0.83094800
    42  C          0.20848000       0.85921120       0.66905200
    43  C          0.20848000       0.64078880       0.16905200
    44  C          0.79152000       0.14078880       0.33094800
    45  H          0.71000000       0.34570000       0.86610000
    46  H          0.29000000       0.84570000       0.63390000
    47  H          0.29000000       0.65430000       0.13390000
    48  H          0.71000000       0.15430000       0.36610000
    49  C          0.39632000       0.64815120       0.95430800
    50  C          0.60368000       0.14815120       0.54569200
    51  C          0.60368000       0.35184880       0.04569200
    52  C          0.39632000       0.85184880       0.45430800
    53  C          0.40327190       0.58135120       0.66202800
    54  C          0.59672810       0.08135120       0.83797200
    55  C          0.59672810       0.41864880       0.33797200
    56  C          0.40327190       0.91864880       0.16202800
    57  H          0.40600000       0.64630000       0.68860000
    58  H          0.59400000       0.14630000       0.81140000
    59  H          0.59400000       0.35370000       0.31140000
    60  H          0.40600000       0.85370000       0.18860000
    61  C          0.34147190       0.58334120       0.82767800
    62  C          0.65852810       0.08334120       0.67232200
    63  C          0.65852810       0.41665880       0.17232200
    64  C          0.34147190       0.91665880       0.32767800
    65  H          0.26440000       0.57460000       0.78400000
    66  H          0.73560000       0.07460000       0.71600000
    67  H          0.73560000       0.42540000       0.21600000
    68  H          0.26440000       0.92540000       0.28400000
    69  C          0.03242000       0.39717120       0.72911800
    70  C          0.96758000       0.89717120       0.77088200
    71  C          0.96758000       0.60282880       0.27088200
    72  C          0.03242000       0.10282880       0.22911800
    73  H          0.11500000       0.41120000       0.69440000
    74  H          0.88500000       0.91120000       0.80560000
    75  H          0.88500000       0.58880000       0.30560000
    76  H          0.11500000       0.08880000       0.19440000
    77  C          0.48062000       0.39737120       0.65333800
    78  C          0.51938000       0.89737120       0.84666200
    79  C          0.51938000       0.60262880       0.34666200
    80  C          0.48062000       0.10262880       0.15333800
    81  H          0.53890000       0.33580000       0.67360000
    82  H          0.46110000       0.83580000       0.82640000
    83  H          0.46110000       0.66420000       0.32640000
    84  H          0.53890000       0.16420000       0.17360000
    85  C          0.57822000       0.60955120       0.95618800
    86  C          0.42178000       0.10955120       0.54381200
    87  C          0.42178000       0.39044880       0.04381200
    88  C          0.57822000       0.89044880       0.45618800
    89  C          0.48553180       0.49147120       0.69470800
    90  C          0.51446820      -0.00852880       0.80529200
    91  C          0.51446820       0.50852880       0.30529200
    92  C          0.48553180       0.00852880       0.19470800
    93  C          0.07129190       0.32133120       0.78385800
    94  C          0.92870810       0.82133120       0.71614200
    95  C          0.92870810       0.67866880       0.21614200
    96  C          0.07129190       0.17866880       0.28385800
    97  C          0.63302000       0.56039120       0.89662800
    98  C          0.36698000       0.06039120       0.60337200
    99  C          0.36698000       0.43960880       0.10337200
   100  C          0.63302000       0.93960880       0.39662800
   101  H          0.75070000       0.53500000       0.89930000
   102  H          0.24930000       0.03500000       0.60070000
   103  H          0.24930000       0.46500000       0.10070000
   104  H          0.75070000       0.96500000       0.39930000
   105  C          0.52049190       0.54441120       0.82865800
   106  C          0.47950810       0.04441120       0.67134200
   107  C          0.47950810       0.45558880       0.17134200
   108  C          0.52049190       0.95558880       0.32865800
   109  C          0.75228190       0.43542120       0.77589800
   110  C          0.24771810       0.93542120       0.72410200
   111  C          0.24771810       0.56457880       0.22410200
   112  C          0.75228190       0.06457880       0.27589800
   113  C          0.30974190       0.48276130       0.55129800
   114  C          0.69025810       0.98276130       0.94870200
   115  C          0.69025810       0.51723870       0.44870200
   116  C          0.30974190       0.01723870       0.05129800
   117  C          0.27982000       0.63135120       0.88604800
   118  C          0.72018000       0.13135120       0.61395200
   119  C          0.72018000       0.36864880       0.11395200
   120  C          0.27982000       0.86864880       0.38604800
   121  C          0.31761190       0.57703130       0.59124800
   122  C          0.68238810       0.07703130       0.90875200
   123  C          0.68238810       0.42296870       0.40875200
   124  C          0.31761190       0.92296870       0.09124800
   125  H          0.26380000       0.63920000       0.56990000
   126  H          0.73620000       0.13920000       0.93010000
   127  H          0.73620000       0.36080000       0.43010000
   128  H          0.26380000       0.86080000       0.06990000
   129  C          0.94892000       0.30320130       0.83442900
   130  C          0.05108000       0.80320130       0.66557100
   131  C          0.05108000       0.69679870       0.16557100
   132  C          0.94892000       0.19679870       0.33442900
   133  H          0.97350000       0.25160000       0.87200000
   134  H          0.02650000       0.75160000       0.62800000
   135  H          0.02650000       0.74840000       0.12800000
   136  H          0.97350000       0.24840000       0.37200000
   137  C          0.39212000       0.39285130       0.58357900
   138  C          0.60788000       0.89285130       0.91642100
   139  C          0.60788000       0.60714870       0.41642100
   140  C          0.39212000       0.10714870       0.08357900
   141  H          0.38710000       0.32770000       0.55720000
   142  H          0.61290000       0.82770000       0.94280000
   143  H          0.61290000       0.67230000       0.44280000
   144  H          0.38710000       0.17230000       0.05720000
   145  C          0.69732000       0.62833130       0.02566900
   146  C          0.30268000       0.12833130       0.47433100
   147  C          0.30268000       0.37166870       0.97433100
   148  C          0.69732000       0.87166870       0.52566900
   149  H          0.81100000       0.59380000       0.02150000
   150  H          0.18900000       0.09380000       0.47850000
   151  H          0.18900000       0.40620000       0.97850000
   152  H          0.81100000       0.90620000       0.52150000
   153  H          0.64320000       0.59860000       0.06780000
   154  H          0.35680000       0.09860000       0.43220000
   155  H          0.35680000       0.40140000       0.93220000
   156  H          0.64320000       0.90140000       0.56780000
   157  H          0.71510000       0.70480000       0.03290000
   158  H          0.28490000       0.20480000       0.46710000
   159  H          0.28490000       0.29520000       0.96710000
   160  H          0.71510000       0.79520000       0.53290000
   161  C          0.87493190       0.45249120       0.72452800
   162  C          0.12506810       0.95249120       0.77547200
   163  C          0.12506810       0.54750880       0.27547200
   164  C          0.87493190       0.04750880       0.22452800
   165  H          0.84970000       0.50270000       0.68600000
   166  H          0.15030000       0.00270000       0.81400000
   167  H          0.15030000       0.49730000       0.31400000
   168  H          0.84970000      -0.00270000       0.18600000
   169  C          0.09212000       0.66711150       0.88662900
   170  C          0.90788000       0.16711150       0.61337100
   171  C          0.90788000       0.33288850       0.11337100
   172  C          0.09212000       0.83288850       0.38662900
   173  H          0.02440000       0.64480000       0.84080000
   174  H          0.97560000       0.14480000       0.65920000
   175  H          0.97560000       0.35520000       0.15920000
   176  H          0.02440000       0.85520000       0.34080000
   177  H          0.08840000       0.74470000       0.89070000
   178  H          0.91160000       0.24470000       0.60930000
   179  H          0.91160000       0.25530000       0.10930000
   180  H          0.08840000       0.75530000       0.39070000
   181  H          0.04100000       0.63520000       0.92880000
   182  H          0.95900000       0.13520000       0.57120000
   183  H          0.95900000       0.36480000       0.07120000
   184  H          0.04100000       0.86480000       0.42880000
