data_DAXTIH02
_symmetry_space_group_name_H-M    'P1'
_symmetry_Int_Tables_number       1
loop_
_symmetry_equiv_pos_site_id
_symmetry_equiv_pos_as_xyz
1 x,y,z
_cell_length_a                   12.8693
_cell_length_b                   17.2554
_cell_length_c                   7.9602
_cell_angle_alpha                90.0
_cell_angle_beta                 99.4365
_cell_angle_gamma                90.0
loop_
_atom_site_label
_atom_site_type_symbol
_atom_site_fract_x
_atom_site_fract_y
_atom_site_fract_z
     1  C          0.49492000       0.14165150       0.38083000
     2  C          0.50508000       0.64165150       0.11917000
     3  C          0.50508000       0.85834850       0.61917000
     4  C          0.49492000       0.35834850       0.88083000
     5  C          0.50612000       0.22246150       0.43903000
     6  C          0.49388000       0.72246150       0.06097000
     7  C          0.49388000       0.77753850       0.56097000
     8  C          0.50612000       0.27753850       0.93903000
     9  C          0.60012000       0.25765150       0.45203000
    10  C          0.39988000       0.75765150       0.04797000
    11  C          0.39988000       0.74234850       0.54797000
    12  C          0.60012000       0.24234850       0.95203000
    13  H          0.60540000       0.30900000       0.48790000
    14  H          0.39460000       0.80900000       0.01210000
    15  H          0.39460000       0.69100000       0.51210000
    16  H          0.60540000       0.19100000      -0.01210000
    17  C          0.69392000       0.21981150       0.41303000
    18  C          0.30608000       0.71981150       0.08697000
    19  C          0.30608000       0.78018850       0.58697000
    20  C          0.69392000       0.28018850       0.91303000
    21  C          0.67962000       0.14066140       0.35003000
    22  C          0.32038000       0.64066140       0.14997000
    23  C          0.32038000       0.85933860       0.64997000
    24  C          0.67962000       0.35933860       0.85003000
    25  H          0.73760000       0.11470000       0.32160000
    26  H          0.26240000       0.61470000       0.17840000
    27  H          0.26240000       0.88530000       0.67840000
    28  H          0.73760000       0.38530000       0.82160000
    29  C          0.58692000       0.10337150       0.33113000
    30  C          0.41308000       0.60337150       0.16887000
    31  C          0.41308000       0.89662850       0.66887000
    32  C          0.58692000       0.39662850       0.83113000
    33  C          0.78992000       0.25702150       0.43603000
    34  C          0.21008000       0.75702150       0.06397000
    35  C          0.21008000       0.74297850       0.56397000
    36  C          0.78992000       0.24297850       0.93603000
    37  C          0.79664190       0.34282150       0.44303000
    38  C          0.20335810       0.84282150       0.05697000
    39  C          0.20335810       0.65717850       0.55697000
    40  C          0.79664190       0.15717850       0.94303000
    41  C          0.72502000       0.38789150       0.33323000
    42  C          0.27498000       0.88789150       0.16677000
    43  C          0.27498000       0.61210850       0.66677000
    44  C          0.72502000       0.11210850       0.83323000
    45  H          0.67220000       0.36370000       0.25750000
    46  H          0.32780000       0.86370000       0.24250000
    47  H          0.32780000       0.63630000       0.74250000
    48  H          0.67220000       0.13630000       0.75750000
    49  C          0.73162000       0.46828150       0.33544000
    50  C          0.26838000       0.96828150       0.16456000
    51  C          0.26838000       0.53171850       0.66456000
    52  C          0.73162000       0.03171850       0.83544000
    53  H          0.68330000       0.49710000       0.26090000
    54  H          0.31670000      -0.00290000       0.23910000
    55  H          0.31670000       0.50290000       0.73910000
    56  H          0.68330000       0.00290000       0.76090000
    57  C          0.80912000       0.50595150       0.44713000
    58  C          0.19088000       0.00595150       0.05287000
    59  C          0.19088000       0.49404850       0.55287000
    60  C          0.80912000      -0.00595150       0.94713000
    61  C          0.88082000       0.46141160       0.55583000
    62  C          0.11918000       0.96141160       0.94417000
    63  C          0.11918000       0.53858840       0.44417000
    64  C          0.88082000       0.03858840       0.05583000
    65  H          0.93370000       0.48590000       0.63070000
    66  H          0.06630000       0.98590000       0.86930000
    67  H          0.06630000       0.51410000       0.36930000
    68  H          0.93370000       0.01410000       0.13070000
    69  C          0.87512000       0.38092150       0.55453000
    70  C          0.12488000       0.88092150       0.94547000
    71  C          0.12488000       0.61907850       0.44547000
    72  C          0.87512000       0.11907850       0.05453000
    73  H          0.92390000       0.35230000       0.62850000
    74  H          0.07610000       0.85230000       0.87150000
    75  H          0.07610000       0.64770000       0.37150000
    76  H          0.92390000       0.14770000       0.12850000
    77  C          0.89062000       0.21412140       0.45683000
    78  C          0.10938000       0.71412140       0.04317000
    79  C          0.10938000       0.78587860       0.54317000
    80  C          0.89062000       0.28587860       0.95683000
    81  C          0.90052000       0.14112150       0.53773000
    82  C          0.09948000       0.64112150       0.96227000
    83  C          0.09948000       0.85887850       0.46227000
    84  C          0.90052000       0.35887850       0.03773000
    85  H          0.84240000       0.11960000       0.57610000
    86  H          0.15760000       0.61960000       0.92390000
    87  H          0.15760000       0.88040000       0.42390000
    88  H          0.84240000       0.38040000       0.07610000
    89  C         -0.00588000       0.10120150       0.56103000
    90  C          0.00588000       0.60120150       0.93897000
    91  C          0.00588000       0.89879850       0.43897000
    92  C         -0.00588000       0.39879850       0.06103000
    93  H         -0.00240000       0.05300000       0.61410000
    94  H          0.00240000       0.55300000       0.88590000
    95  H          0.00240000       0.94700000       0.38590000
    96  H         -0.00240000       0.44700000       0.11410000
    97  C          0.08412000       0.13082150       0.50733000
    98  C          0.91588000       0.63082150      -0.00733000
    99  C          0.91588000       0.86917850       0.49267000
   100  C          0.08412000       0.36917850       0.00733000
   101  C          0.07462000       0.20355150       0.42883000
   102  C          0.92538000       0.70355150       0.07117000
   103  C          0.92538000       0.79644850       0.57117000
   104  C          0.07462000       0.29644850       0.92883000
   105  H          0.13310000       0.22520000       0.39200000
   106  H          0.86690000       0.72520000       0.10800000
   107  H          0.86690000       0.77480000       0.60800000
   108  H          0.13310000       0.27480000       0.89200000
   109  C          0.98122000       0.24403150       0.40443000
   110  C          0.01878000       0.74403150       0.09557000
   111  C          0.01878000       0.75596850       0.59557000
   112  C          0.98122000       0.25596850       0.90443000
   113  H          0.97830000       0.29230000       0.35190000
   114  H          0.02170000       0.79230000       0.14810000
   115  H          0.02170000       0.70770000       0.64810000
   116  H          0.97830000       0.20770000       0.85190000
   117  C          0.41052000       0.26114170       0.48544000
   118  C          0.58948000       0.76114170       0.01456000
   119  C          0.58948000       0.73885830       0.51456000
   120  C          0.41052000       0.23885830      -0.01456000
   121  H          0.42750000       0.31360000       0.52000000
   122  H          0.57250000       0.81360000       0.98000000
   123  H          0.57250000       0.68640000       0.48000000
   124  H          0.42750000       0.18640000       0.02000000
   125  H          0.38770000       0.23350000       0.57740000
   126  H          0.61230000       0.73350000       0.92260000
   127  H          0.61230000       0.76650000       0.42260000
   128  H          0.38770000       0.26650000       0.07740000
   129  H          0.35520000       0.26120000       0.38850000
   130  H          0.64480000       0.76120000       0.11150000
   131  H          0.64480000       0.73880000       0.61150000
   132  H          0.35520000       0.23880000       0.88850000
   133  C          0.57182000       0.02327160       0.25634000
   134  C          0.42818000       0.52327160       0.24366000
   135  C          0.42818000       0.97672840       0.74366000
   136  C          0.57182000       0.47672840       0.75634000
   137  H          0.63410000       0.00790000       0.21330000
   138  H          0.36590000       0.50790000       0.28670000
   139  H          0.36590000      -0.00790000       0.78670000
   140  H          0.63410000       0.49210000       0.71330000
   141  H          0.51290000       0.02330000       0.16500000
   142  H          0.48710000       0.52330000       0.33500000
   143  H          0.48710000       0.97670000       0.83500000
   144  H          0.51290000       0.47670000       0.66500000
   145  H          0.55860000       0.98750000       0.34270000
   146  H          0.44140000       0.48750000       0.15730000
   147  H          0.44140000       0.01250000       0.65730000
   148  H          0.55860000       0.51250000       0.84270000
   149  C          0.81702000       0.59361150       0.44914000
   150  C          0.18298000       0.09361150       0.05086000
   151  C          0.18298000       0.40638850       0.55086000
   152  C          0.81702000       0.90638850       0.94914000
   153  H          0.82110000       0.61200000       0.56380000
   154  H          0.17890000       0.11200000       0.93620000
   155  H          0.17890000       0.38800000       0.43620000
   156  H          0.82110000       0.88800000       0.06380000
   157  H          0.75590000       0.61520000       0.37940000
   158  H          0.24410000       0.11520000       0.12060000
   159  H          0.24410000       0.38480000       0.62060000
   160  H          0.75590000       0.88480000       0.87940000
   161  H          0.87910000       0.60910000       0.40540000
   162  H          0.12090000       0.10910000       0.09460000
   163  H          0.12090000       0.39090000       0.59460000
   164  H          0.87910000       0.89090000       0.90540000
   165  C          0.18622000       0.08664170       0.53604000
   166  C          0.81378000       0.58664170       0.96396000
   167  C          0.81378000       0.91335830       0.46396000
   168  C          0.18622000       0.41335830       0.03604000
   169  H          0.17790000       0.03920000       0.47230000
   170  H          0.82210000       0.53920000       0.02770000
   171  H          0.82210000       0.96080000       0.52770000
   172  H          0.17790000       0.46080000       0.97230000
   173  H          0.20560000       0.07520000       0.65500000
   174  H          0.79440000       0.57520000       0.84500000
   175  H          0.79440000       0.92480000       0.34500000
   176  H          0.20560000       0.42480000       0.15500000
   177  H          0.24040000       0.11740000       0.49880000
   178  H          0.75960000       0.61740000       0.00120000
   179  H          0.75960000       0.88260000       0.50120000
   180  H          0.24040000       0.38260000      -0.00120000
   181  O          0.40925150       0.10771110       0.37003000
   182  O          0.59074850       0.60771110       0.12997000
   183  O          0.59074850       0.89228890       0.62997000
   184  O          0.40925150       0.39228890       0.87003000
