data_DAXTIH01
_symmetry_space_group_name_H-M    'P1'
_symmetry_Int_Tables_number       1
loop_
_symmetry_equiv_pos_site_id
_symmetry_equiv_pos_as_xyz
1 x,y,z
_cell_length_a                   7.48226
_cell_length_b                   8.13286
_cell_length_c                   15.301411
_cell_angle_alpha                97.5621
_cell_angle_beta                 101.0461
_cell_angle_gamma                102.9921
loop_
_atom_site_label
_atom_site_type_symbol
_atom_site_fract_x
_atom_site_fract_y
_atom_site_fract_z
     1  O          0.22474120       0.13147110       0.41019500
     2  O          0.77525880       0.86852890       0.58980500
     3  C          0.27950150       0.92098140       0.73838700
     4  C          0.72049850       0.07901860       0.26161300
     5  C          0.22767150       0.13691140       0.64351700
     6  C          0.77232850       0.86308860       0.35648300
     7  H          0.20950000       0.20800000       0.69380000
     8  H          0.79050000       0.79200000       0.30620000
     9  C          0.23447150       0.08241140       0.48366700
    10  C          0.76552850       0.91758860       0.51633300
    11  C          0.22221150       0.19468140       0.56463800
    12  C          0.77778850       0.80531860       0.43536200
    13  C          0.26002150       0.97101140       0.65498700
    14  C          0.73997850       0.02898860       0.34501300
    15  C          0.32696160       0.06078140       0.90080800
    16  C          0.67303840       0.93921860       0.09919200
    17  H          0.44780000       0.03880000       0.91380000
    18  H          0.55220000       0.96120000       0.08620000
    19  C          0.29434160       0.65939140       0.80774700
    20  C          0.70565840       0.34060860       0.19225300
    21  H          0.18420000       0.66620000       0.82870000
    22  H          0.81580000       0.33380000       0.17130000
    23  C          0.54380160       0.51727140       0.79759800
    24  C          0.45619840       0.48272860       0.20240200
    25  C          0.36829160       0.78067140       0.75825700
    26  C          0.63170840       0.21932860       0.24174300
    27  C          0.21349160       0.00752140       0.81276700
    28  C          0.78650840      -0.00752140       0.18723300
    29  C          0.03325160       0.03515140       0.79645700
    30  C          0.96674840       0.96484860       0.20354300
    31  H          0.95340000      -0.00130000       0.73750000
    32  H          0.04660000       0.00130000       0.26250000
    33  C          0.27599150       0.86328140       0.57492700
    34  C          0.72400850       0.13671860       0.42507300
    35  H          0.29920000       0.75450000       0.58030000
    36  H          0.70080000       0.24550000       0.41970000
    37  C          0.25941150       0.91065150       0.49308800
    38  C          0.74058850       0.08934850       0.50691200
    39  C          0.38001170       0.52955150       0.82649800
    40  C          0.61998830       0.47044850       0.17350200
    41  H          0.32670000       0.44770000       0.85940000
    42  H          0.67330000       0.55230000       0.14060000
    43  C          0.97018840       0.11563150       0.86590800
    44  C          0.02981160       0.88436850       0.13409200
    45  H          0.84620000       0.13100000       0.85400000
    46  H          0.15380000       0.86900000       0.14600000
    47  C          0.08491170       0.17425140       0.95263800
    48  C          0.91508830       0.82574860       0.04736200
    49  C          0.53284160       0.76892150       0.73008700
    50  C          0.46715840       0.23107850       0.26991300
    51  H          0.58690000       0.85090000       0.69740000
    52  H          0.41310000       0.14910000       0.30260000
    53  C          0.26460170       0.14521140       0.96908800
    54  C          0.73539830       0.85478860       0.03091200
    55  H          0.34500000       0.18390000       0.02780000
    56  H          0.65500000       0.81610000       0.97220000
    57  C          0.20963170       0.37310150       0.55508800
    58  C          0.79036830       0.62689850       0.44491200
    59  H          0.19800000       0.43380000       0.61260000
    60  H          0.80200000       0.56620000       0.38740000
    61  H          0.09910000       0.36760000       0.50750000
    62  H          0.90090000       0.63240000       0.49250000
    63  H          0.32360000       0.43450000       0.53890000
    64  H          0.67640000       0.56550000       0.46110000
    65  C          0.63748180       0.37642150       0.81770900
    66  C          0.36251820       0.62357850       0.18229100
    67  H          0.64360000       0.36380000       0.88100000
    68  H          0.35640000       0.63620000       0.11900000
    69  H          0.76530000       0.40550000       0.80750000
    70  H          0.23470000       0.59450000       0.19250000
    71  H          0.56450000       0.26830000       0.77770000
    72  H          0.43550000       0.73170000       0.22230000
    73  C          0.01595180       0.26515150       0.02663800
    74  C         -0.01595180       0.73484850       0.97336200
    75  H          0.06800000       0.38930000       0.03410000
    76  H          0.93200000       0.61070000       0.96590000
    77  H          0.05700000       0.22700000       0.08350000
    78  H          0.94300000       0.77300000       0.91650000
    79  H          0.87800000       0.23830000       0.01040000
    80  H          0.12200000       0.76170000       0.98960000
    81  C          0.61811160       0.63887150       0.74935800
    82  C          0.38188840       0.36112850       0.25064200
    83  H          0.72930000       0.63280000       0.72920000
    84  H          0.27070000       0.36720000       0.27080000
    85  C          0.26439170       0.79474150       0.40929800
    86  C          0.73560830       0.20525850       0.59070200
    87  H          0.28700000       0.68700000       0.42500000
    88  H          0.71300000       0.31300000       0.57500000
    89  H          0.36590000       0.85100000       0.38280000
    90  H          0.63410000       0.14900000       0.61720000
    91  H          0.14350000       0.77050000       0.36540000
    92  H          0.85650000       0.22950000       0.63460000
