data_DBEZLM28
_symmetry_space_group_name_H-M    'P1'
_symmetry_Int_Tables_number       1
loop_
_symmetry_equiv_pos_site_id
_symmetry_equiv_pos_as_xyz
1 x,y,z
_cell_length_a                   12.55478
_cell_length_b                   11.76756
_cell_length_c                   7.78486
_cell_angle_alpha                90.0
_cell_angle_beta                 103.4447
_cell_angle_gamma                90.0
loop_
_atom_site_label
_atom_site_type_symbol
_atom_site_fract_x
_atom_site_fract_y
_atom_site_fract_z
     1  O          0.58570900       0.90420900       0.35967170
     2  O          0.41429100       0.40420900       0.14032830
     3  O          0.41429100       0.09579100       0.64032830
     4  O          0.58570900       0.59579100       0.85967170
     5  H          0.64598400       0.91728200       0.33419800
     6  H          0.35401600       0.41728200       0.16580200
     7  H          0.35401600       0.08271800       0.66580200
     8  H          0.64598400       0.58271800       0.83419800
     9  O          0.76146900       0.86971800       0.28266150
    10  O          0.23853100       0.36971800       0.21733850
    11  O          0.23853100       0.13028200       0.71733850
    12  O          0.76146900       0.63028200       0.78266150
    13  C          0.39384130       0.84078130       0.43762000
    14  C          0.60615870       0.34078130       0.06238000
    15  C          0.60615870       0.15921870       0.56238000
    16  C          0.39384130       0.65921870       0.93762000
    17  H          0.41297900       0.91888000       0.43748200
    18  H          0.58702100       0.41888000       0.06251800
    19  H          0.58702100       0.08112000       0.56251800
    20  H          0.41297900       0.58112000       0.93748200
    21  C          0.29531130       0.80928140       0.47522000
    22  C          0.70468870       0.30928140       0.02478000
    23  C          0.70468870       0.19071860       0.52478000
    24  C          0.29531130       0.69071860       0.97522000
    25  H          0.24741200       0.86571600       0.50160500
    26  H          0.75258800       0.36571600      -0.00160500
    27  H          0.75258800       0.13428400       0.49839500
    28  H          0.24741200       0.63428400       0.00160500
    29  C          0.26669130       0.69571140       0.47432000
    30  C          0.73330870       0.19571140       0.02568000
    31  C          0.73330870       0.30428860       0.52568000
    32  C          0.26669130       0.80428860       0.97432000
    33  H          0.19903000       0.67415400       0.49963800
    34  H          0.80097000       0.17415400       0.00036200
    35  H          0.80097000       0.32584600       0.50036200
    36  H          0.19903000       0.82584600      -0.00036200
    37  C          0.33666130       0.61367130       0.43662000
    38  C          0.66333870       0.11367130       0.06338000
    39  C          0.66333870       0.38632870       0.56338000
    40  C          0.33666130       0.88632870       0.93662000
    41  H          0.31701800       0.53568400       0.43600100
    42  H          0.68298200       0.03568400       0.06399900
    43  H          0.68298200       0.46431600       0.56399900
    44  H          0.31701800       0.96431600       0.93600100
    45  C          0.43516130       0.64478130       0.39962000
    46  C          0.56483870       0.14478130       0.10038000
    47  C          0.56483870       0.35521870       0.60038000
    48  C          0.43516130       0.85521870       0.89962000
    49  H          0.48288900       0.58797900       0.37372700
    50  H          0.51711100       0.08797900       0.12627300
    51  H          0.51711100       0.41202100       0.62627300
    52  H          0.48288900       0.91202100       0.87372700
    53  C          0.46484120       0.75869120       0.40005190
    54  C          0.53515880       0.25869120       0.09994810
    55  C          0.53515880       0.24130880       0.59994810
    56  C          0.46484120       0.74130880       0.90005190
    57  C          0.56926120       0.79548120       0.35971190
    58  C          0.43073880       0.29548120       0.14028810
    59  C          0.43073880       0.20451880       0.64028810
    60  C          0.56926120       0.70451880       0.85971190
    61  C          0.64736120       0.72063120       0.32439190
    62  C          0.35263880       0.22063120       0.17560810
    63  C          0.35263880       0.27936880       0.67560810
    64  C          0.64736120       0.77936880       0.82439190
    65  H          0.63470200       0.64105300       0.32493700
    66  H          0.36529800       0.14105300       0.17506300
    67  H          0.36529800       0.35894700       0.67506300
    68  H          0.63470200       0.85894700       0.82493700
    69  C          0.74430120       0.76177120       0.28811190
    70  C          0.25569880       0.26177120       0.21188810
    71  C          0.25569880       0.23822880       0.71188810
    72  C          0.74430120       0.73822880       0.78811190
    73  C          0.83221120       0.68601120       0.25575190
    74  C          0.16778880       0.18601120       0.24424810
    75  C          0.16778880       0.31398880       0.74424810
    76  C          0.83221120       0.81398880       0.75575190
    77  C          0.83265140       0.57008140       0.28763000
    78  C          0.16734860       0.07008140       0.21237000
    79  C          0.16734860       0.42991860       0.71237000
    80  C          0.83265140       0.92991860       0.78763000
    81  H          0.77338800       0.53620600       0.32558400
    82  H          0.22661200       0.03620600       0.17441600
    83  H          0.22661200       0.46379400       0.67441600
    84  H          0.77338800       0.96379400       0.82558400
    85  C          0.91887150       0.50361150       0.26423000
    86  C          0.08112850       0.00361150       0.23577000
    87  C          0.08112850       0.49638850       0.73577000
    88  C          0.91887150      -0.00361150       0.76423000
    89  H          0.91873300       0.42438300       0.28761100
    90  H          0.08126700       0.92438300       0.21238900
    91  H          0.08126700       0.57561700       0.71238900
    92  H          0.91873300       0.07561700       0.78761100
    93  C          0.00527130       0.55099140       0.20732000
    94  C         -0.00527130       0.05099140       0.29268000
    95  C         -0.00527130       0.44900860       0.79268000
    96  C          0.00527130       0.94900860       0.70732000
    97  H          0.06479700       0.50505700       0.19286700
    98  H          0.93520300       0.00505700       0.30713300
    99  H          0.93520300       0.49494300       0.80713300
   100  H          0.06479700      -0.00505700       0.69286700
   101  C          0.00398130       0.66585140       0.17172000
   102  C         -0.00398130       0.16585140       0.32828000
   103  C         -0.00398130       0.33414860       0.82828000
   104  C          0.00398130       0.83414860       0.67172000
   105  H          0.06218200       0.69899600       0.12993900
   106  H          0.93781800       0.19899600       0.37006100
   107  H          0.93781800       0.30100400       0.87006100
   108  H          0.06218200       0.80100400       0.62993900
   109  C          0.91846130       0.73303130       0.19662000
   110  C          0.08153870       0.23303130       0.30338000
   111  C          0.08153870       0.26696870       0.80338000
   112  C          0.91846130       0.76696870       0.69662000
   113  H          0.91879100       0.81220400       0.17287300
   114  H          0.08120900       0.31220400       0.32712700
   115  H          0.08120900       0.18779600       0.82712700
   116  H          0.91879100       0.68779600       0.67287300
