data_DBEZLM02
_symmetry_space_group_name_H-M    'P1'
_symmetry_Int_Tables_number       1
loop_
_symmetry_equiv_pos_site_id
_symmetry_equiv_pos_as_xyz
1 x,y,z
_cell_length_a                   10.853
_cell_length_b                   24.441
_cell_length_c                   8.755
_cell_angle_alpha                90.0
_cell_angle_beta                 90.0
_cell_angle_gamma                90.0
loop_
_atom_site_label
_atom_site_type_symbol
_atom_site_fract_x
_atom_site_fract_y
_atom_site_fract_z
     1  C          0.94310000       0.98110000       0.18820000
     2  C          0.55690000       0.01890000       0.68820000
     3  C          0.44310000       0.51890000       0.81180000
     4  C          0.05690000       0.48110000       0.31180000
     5  C          0.05690000       0.01890000       0.81180000
     6  C          0.44310000       0.98110000       0.31180000
     7  C          0.55690000       0.48110000       0.18820000
     8  C          0.94310000       0.51890000       0.68820000
     9  C          0.06990000       0.23860000       0.66870000
    10  C          0.43010000       0.76140000       0.16870000
    11  C          0.56990000       0.26140000       0.33130000
    12  C          0.93010000       0.73860000       0.83130000
    13  C          0.93010000       0.76140000       0.33130000
    14  C          0.56990000       0.23860000       0.83130000
    15  C          0.43010000       0.73860000       0.66870000
    16  C          0.06990000       0.26140000       0.16870000
    17  C          0.14040000       0.19490000       0.61510000
    18  C          0.35960000       0.80510000       0.11510000
    19  C          0.64040000       0.30510000       0.38490000
    20  C          0.85960000       0.69490000       0.88490000
    21  C          0.85960000       0.80510000       0.38490000
    22  C          0.64040000       0.19490000       0.88490000
    23  C          0.35960000       0.69490000       0.61510000
    24  C          0.14040000       0.30510000       0.11510000
    25  C          0.08910000       0.15660000       0.51560000
    26  C          0.41090000       0.84340000       0.01560000
    27  C          0.58910000       0.34340000       0.48440000
    28  C          0.91090000       0.65660000      -0.01560000
    29  C          0.91090000       0.84340000       0.48440000
    30  C          0.58910000       0.15660000      -0.01560000
    31  C          0.41090000       0.65660000       0.51560000
    32  C          0.08910000       0.34340000       0.01560000
    33  C          0.89370000       0.03530000       0.22980000
    34  C          0.60630000       0.96470000       0.72980000
    35  C          0.39370000       0.46470000       0.77020000
    36  C          0.10630000       0.53530000       0.27020000
    37  C          0.10630000       0.96470000       0.77020000
    38  C          0.39370000       0.03530000       0.27020000
    39  C          0.60630000       0.53530000       0.22980000
    40  C          0.89370000       0.46470000       0.72980000
    41  C          0.95520000       0.07060000       0.33370000
    42  C          0.54480000       0.92940000       0.83370000
    43  C          0.45520000       0.42940000       0.66630000
    44  C          0.04480000       0.57060000       0.16630000
    45  C          0.04480000       0.92940000       0.66630000
    46  C          0.45520000       0.07060000       0.16630000
    47  C          0.54480000       0.57060000       0.33370000
    48  C          0.95520000       0.42940000       0.83370000
    49  C          0.90810000       0.12240000       0.36480000
    50  C          0.59190000       0.87760000       0.86480000
    51  C          0.40810000       0.37760000       0.63520000
    52  C          0.09190000       0.62240000       0.13520000
    53  C          0.09190000       0.87760000       0.63520000
    54  C          0.40810000       0.12240000       0.13520000
    55  C          0.59190000       0.62240000       0.36480000
    56  C          0.90810000       0.37760000       0.86480000
    57  C          0.87780000       0.94840000       0.08560000
    58  C          0.62220000       0.05160000       0.58560000
    59  C          0.37780000       0.55160000       0.91440000
    60  C          0.12220000       0.44840000       0.41440000
    61  C          0.12220000       0.05160000       0.91440000
    62  C          0.37780000       0.94840000       0.41440000
    63  C          0.62220000       0.44840000       0.08560000
    64  C          0.87780000       0.55160000       0.58560000
    65  C          0.92400000       0.89760000       0.04210000
    66  C          0.57600000       0.10240000       0.54210000
    67  C          0.42400000       0.60240000       0.95790000
    68  C          0.07600000       0.39760000       0.45790000
    69  C          0.07600000       0.10240000       0.95790000
    70  C          0.42400000       0.89760000       0.45790000
    71  C          0.57600000       0.39760000       0.04210000
    72  C          0.92400000       0.60240000       0.54210000
    73  C          0.03440000       0.87920000       0.09990000
    74  C          0.46560000       0.12080000       0.59990000
    75  C          0.53440000       0.62080000       0.90010000
    76  C          0.96560000       0.37920000       0.40010000
    77  C          0.96560000       0.12080000       0.90010000
    78  C          0.53440000       0.87920000       0.40010000
    79  C          0.46560000       0.37920000       0.09990000
    80  C          0.03440000       0.62080000       0.59990000
    81  C          0.10190000       0.91180000       0.19970000
    82  C          0.39810000       0.08820000       0.69970000
    83  C          0.60190000       0.58820000       0.80030000
    84  C          0.89810000       0.41180000       0.30030000
    85  C          0.89810000       0.08820000       0.80030000
    86  C          0.60190000       0.91180000       0.30030000
    87  C          0.39810000       0.41180000       0.19970000
    88  C          0.10190000       0.58820000       0.69970000
    89  C          0.05570000       0.96250000       0.24370000
    90  C          0.44430000       0.03750000       0.74370000
    91  C          0.55570000       0.53750000       0.75630000
    92  C          0.94430000       0.46250000       0.25630000
    93  C          0.94430000       0.03750000       0.75630000
    94  C          0.55570000       0.96250000       0.25630000
    95  C          0.44430000       0.46250000       0.24370000
    96  C          0.05570000       0.53750000       0.74370000
    97  C          0.96620000       0.16170000       0.47020000
    98  C          0.53380000       0.83830000       0.97020000
    99  C          0.46620000       0.33830000       0.52980000
   100  C          0.03380000       0.66170000       0.02980000
   101  C          0.03380000       0.83830000       0.52980000
   102  C          0.46620000       0.16170000       0.02980000
   103  C          0.53380000       0.66170000       0.47020000
   104  C          0.96620000       0.33830000       0.97020000
   105  C          0.89530000       0.20540000       0.52430000
   106  C          0.60470000       0.79460000       0.02430000
   107  C          0.39530000       0.29460000       0.47570000
   108  C          0.10470000       0.70540000       0.97570000
   109  C          0.10470000       0.79460000       0.47570000
   110  C          0.39530000       0.20540000       0.97570000
   111  C          0.60470000       0.70540000       0.52430000
   112  C          0.89530000       0.29460000       0.02430000
   113  C          0.94750000       0.24310000       0.62520000
   114  C          0.55250000       0.75690000       0.12520000
   115  C          0.44750000       0.25690000       0.37480000
   116  C          0.05250000       0.74310000       0.87480000
   117  C          0.05250000       0.75690000       0.37480000
   118  C          0.44750000       0.24310000       0.87480000
   119  C          0.55250000       0.74310000       0.62520000
   120  C          0.94750000       0.25690000       0.12520000
   121  H          0.79320000       0.96320000       0.03920000
   122  H          0.70680000       0.03680000       0.53920000
   123  H          0.29320000       0.53680000       0.96080000
   124  H          0.20680000       0.46320000       0.46080000
   125  H          0.20680000       0.03680000       0.96080000
   126  H          0.29320000       0.96320000       0.46080000
   127  H          0.70680000       0.46320000       0.03920000
   128  H          0.79320000       0.53680000       0.53920000
   129  H          0.87300000       0.87290000       0.96170000
   130  H          0.62700000       0.12710000       0.46170000
   131  H          0.37300000       0.62710000       0.03830000
   132  H          0.12700000       0.37290000       0.53830000
   133  H          0.12700000       0.12710000       0.03830000
   134  H          0.37300000       0.87290000       0.53830000
   135  H          0.62700000       0.37290000       0.96170000
   136  H          0.87300000       0.62710000       0.46170000
   137  H          0.07060000       0.84000000       0.06620000
   138  H          0.42940000       0.16000000       0.56620000
   139  H          0.57060000       0.66000000       0.93380000
   140  H          0.92940000       0.34000000       0.43380000
   141  H          0.92940000       0.16000000       0.93380000
   142  H          0.57060000       0.84000000       0.43380000
   143  H          0.42940000       0.34000000       0.06620000
   144  H          0.07060000       0.66000000       0.56620000
   145  H          0.18810000       0.89850000       0.24470000
   146  H          0.31190000       0.10150000       0.74470000
   147  H          0.68810000       0.60150000       0.75530000
   148  H          0.81190000       0.39850000       0.25530000
   149  H          0.81190000       0.10150000       0.75530000
   150  H          0.68810000       0.89850000       0.25530000
   151  H          0.31190000       0.39850000       0.24470000
   152  H          0.18810000       0.60150000       0.74470000
   153  H          0.10880000       0.98720000       0.32150000
   154  H          0.39120000       0.01280000       0.82150000
   155  H          0.60880000       0.51280000       0.67850000
   156  H          0.89120000       0.48720000       0.17850000
   157  H          0.89120000       0.01280000       0.67850000
   158  H          0.60880000       0.98720000       0.17850000
   159  H          0.39120000       0.48720000       0.32150000
   160  H          0.10880000       0.51280000       0.82150000
   161  H          0.80130000       0.20890000       0.49050000
   162  H          0.69870000       0.79110000      -0.00950000
   163  H          0.30130000       0.29110000       0.50950000
   164  H          0.19870000       0.70890000       0.00950000
   165  H          0.19870000       0.79110000       0.50950000
   166  H          0.30130000       0.20890000       0.00950000
   167  H          0.69870000       0.70890000       0.49050000
   168  H          0.80130000       0.29110000      -0.00950000
   169  H          0.89230000       0.27580000       0.66740000
   170  H          0.60770000       0.72420000       0.16740000
   171  H          0.39230000       0.22420000       0.33260000
   172  H          0.10770000       0.77580000       0.83260000
   173  H          0.10770000       0.72420000       0.33260000
   174  H          0.39230000       0.27580000       0.83260000
   175  H          0.60770000       0.77580000       0.66740000
   176  H          0.89230000       0.22420000       0.16740000
   177  H          0.10860000       0.26750000       0.74590000
   178  H          0.39140000       0.73250000       0.24590000
   179  H          0.60860000       0.23250000       0.25410000
   180  H          0.89140000       0.76750000       0.75410000
   181  H          0.89140000       0.73250000       0.25410000
   182  H          0.60860000       0.26750000       0.75410000
   183  H          0.39140000       0.76750000       0.74590000
   184  H          0.10860000       0.23250000       0.24590000
   185  H          0.23330000       0.19110000       0.64890000
   186  H          0.26670000       0.80890000       0.14890000
   187  H          0.73330000       0.30890000       0.35110000
   188  H          0.76670000       0.69110000       0.85110000
   189  H          0.76670000       0.80890000       0.35110000
   190  H          0.73330000       0.19110000       0.85110000
   191  H          0.26670000       0.69110000       0.64890000
   192  H          0.23330000       0.30890000       0.14890000
   193  H          0.14360000       0.12330000       0.47670000
   194  H          0.35640000       0.87670000       0.97670000
   195  H          0.64360000       0.37670000       0.52330000
   196  H          0.85640000       0.62330000       0.02330000
   197  H          0.85640000       0.87670000       0.52330000
   198  H          0.64360000       0.12330000       0.02330000
   199  H          0.35640000       0.62330000       0.47670000
   200  H          0.14360000       0.37670000       0.97670000
   201  H          0.03820000       0.05810000       0.38870000
   202  H          0.46180000       0.94190000       0.88870000
   203  H          0.53820000       0.44190000       0.61130000
   204  H          0.96180000       0.55810000       0.11130000
   205  H          0.96180000       0.94190000       0.61130000
   206  H          0.53820000       0.05810000       0.11130000
   207  H          0.46180000       0.55810000       0.38870000
   208  H          0.03820000       0.44190000       0.88870000
   209  H          0.77780000       0.10120000       0.22670000
   210  H          0.72220000       0.89880000       0.72670000
   211  H          0.27780000       0.39880000       0.77330000
   212  H          0.22220000       0.60120000       0.27330000
   213  H          0.22220000       0.89880000       0.77330000
   214  H          0.27780000       0.10120000       0.27330000
   215  H          0.72220000       0.60120000       0.22670000
   216  H          0.77780000       0.39880000       0.72670000
   217  O          0.79230000       0.04990000       0.16910000
   218  O          0.70770000       0.95010000       0.66910000
   219  O          0.29230000       0.45010000       0.83090000
   220  O          0.20770000       0.54990000       0.33090000
   221  O          0.20770000       0.95010000       0.83090000
   222  O          0.29230000       0.04990000       0.33090000
   223  O          0.70770000       0.54990000       0.16910000
   224  O          0.79230000       0.45010000       0.66910000
   225  O          0.80590000       0.13880000       0.29960000
   226  O          0.69410000       0.86120000       0.79960000
   227  O          0.30590000       0.36120000       0.70040000
   228  O          0.19410000       0.63880000       0.20040000
   229  O          0.19410000       0.86120000       0.70040000
   230  O          0.30590000       0.13880000       0.20040000
   231  O          0.69410000       0.63880000       0.29960000
   232  O          0.80590000       0.36120000       0.79960000
