data_DBEZLM04
_symmetry_space_group_name_H-M    'P1'
_symmetry_Int_Tables_number       1
loop_
_symmetry_equiv_pos_site_id
_symmetry_equiv_pos_as_xyz
1 x,y,z
_cell_length_a                   12.4918
_cell_length_b                   11.8504
_cell_length_c                   8.0683
_cell_angle_alpha                90.0
_cell_angle_beta                 103.415
_cell_angle_gamma                90.0
loop_
_atom_site_label
_atom_site_type_symbol
_atom_site_fract_x
_atom_site_fract_y
_atom_site_fract_z
     1  O          0.24012000       0.36952000       0.22533000
     2  O          0.75988000       0.86952000       0.27467000
     3  O          0.75988000       0.63048000       0.77467000
     4  O          0.24012000       0.13048000       0.72533000
     5  O          0.41632000       0.40472000       0.14743000
     6  O          0.58368000       0.90472000       0.35257000
     7  O          0.58368000       0.59528000       0.85257000
     8  O          0.41632000       0.09528000       0.64743000
     9  C          0.25702000       0.26322000       0.21473000
    10  C          0.74298000       0.76322000       0.28527000
    11  C          0.74298000       0.73678000       0.78527000
    12  C          0.25702000       0.23678000       0.71473000
    13  C          0.35292000       0.22382000       0.17573000
    14  C          0.64708000       0.72382000       0.32427000
    15  C          0.64708000       0.77618000       0.82427000
    16  C          0.35292000       0.27618000       0.67573000
    17  C          0.43152000       0.29702000       0.14263000
    18  C          0.56848000       0.79702000       0.35737000
    19  C          0.56848000       0.70298000       0.85737000
    20  C          0.43152000       0.20298000       0.64263000
    21  C          0.53492000       0.26082000       0.09863000
    22  C          0.46508000       0.76082000       0.40137000
    23  C          0.46508000       0.73918000       0.90137000
    24  C          0.53492000       0.23918000       0.59863000
    25  C          0.56562000       0.14832000       0.09884000
    26  C          0.43438000       0.64832000       0.40116000
    27  C          0.43438000       0.85168000       0.90116000
    28  C          0.56562000       0.35168000       0.59884000
    29  C          0.66303000       0.11803000       0.05994000
    30  C          0.33697000       0.61803000       0.44006000
    31  C          0.33697000       0.88197000       0.94006000
    32  C          0.66303000       0.38197000       0.55994000
    33  C          0.73133000       0.19803000       0.01974000
    34  C          0.26867000       0.69803000       0.48026000
    35  C          0.26867000       0.80197000       0.98026000
    36  C          0.73133000       0.30197000       0.51974000
    37  C          0.70263000       0.30903000       0.01964000
    38  C          0.29737000       0.80903000       0.48036000
    39  C          0.29737000       0.69097000       0.98036000
    40  C          0.70263000       0.19097000       0.51964000
    41  C          0.60513000       0.34113000       0.05854000
    42  C          0.39487000       0.84113000       0.44146000
    43  C          0.39487000       0.65887000       0.94146000
    44  C          0.60513000       0.15887000       0.55854000
    45  C          0.16882000       0.18772000       0.24433000
    46  C          0.83118000       0.68772000       0.25567000
    47  C          0.83118000       0.81228000       0.75567000
    48  C          0.16882000       0.31228000       0.74433000
    49  C          0.08242000       0.23123000       0.30314000
    50  C          0.91758000       0.73123000       0.19686000
    51  C          0.91758000       0.76877000       0.69686000
    52  C          0.08242000       0.26877000       0.80314000
    53  C         -0.00243000       0.16413000       0.32704000
    54  C          0.00243000       0.66413000       0.17296000
    55  C          0.00243000       0.83587000       0.67296000
    56  C         -0.00243000       0.33587000       0.82704000
    57  C         -0.00313000       0.05233000       0.29294000
    58  C          0.00313000       0.55233000       0.20706000
    59  C          0.00313000       0.94767000       0.70706000
    60  C         -0.00313000       0.44767000       0.79294000
    61  C          0.08193000       0.00783000       0.23556000
    62  C          0.91807000       0.50783000       0.26444000
    63  C          0.91807000      -0.00783000       0.76444000
    64  C          0.08193000       0.49217000       0.73556000
    65  C          0.16693000       0.07423000       0.21215000
    66  C          0.83307000       0.57423000       0.28785000
    67  C          0.83307000       0.92577000       0.78785000
    68  C          0.16693000       0.42577000       0.71215000
    69  H          0.32880000       0.41320000       0.19820000
    70  H          0.67120000       0.91320000       0.30180000
    71  H          0.67120000       0.58680000       0.80180000
    72  H          0.32880000       0.08680000       0.69820000
    73  H          0.36470000       0.14470000       0.17160000
    74  H          0.63530000       0.64470000       0.32840000
    75  H          0.63530000       0.85530000       0.82840000
    76  H          0.36470000       0.35530000       0.67160000
    77  H          0.51870000       0.09170000       0.12600000
    78  H          0.48130000       0.59170000       0.37400000
    79  H          0.48130000       0.90830000       0.87400000
    80  H          0.51870000       0.40830000       0.62600000
    81  H          0.68310000       0.04060000       0.06100000
    82  H          0.31690000       0.54060000       0.43900000
    83  H          0.31690000       0.95940000       0.93900000
    84  H          0.68310000       0.45940000       0.56100000
    85  H          0.79830000       0.17660000      -0.00800000
    86  H          0.20170000       0.67660000       0.50800000
    87  H          0.20170000       0.82340000       0.00800000
    88  H          0.79830000       0.32340000       0.49200000
    89  H          0.75030000       0.36490000      -0.00770000
    90  H          0.24970000       0.86490000       0.50770000
    91  H          0.24970000       0.63510000       0.00770000
    92  H          0.75030000       0.13510000       0.49230000
    93  H          0.58610000       0.41880000       0.05790000
    94  H          0.41390000       0.91880000       0.44210000
    95  H          0.41390000       0.58120000       0.94210000
    96  H          0.58610000       0.08120000       0.55790000
    97  H          0.08130000       0.30960000       0.32780000
    98  H          0.91870000       0.80960000       0.17220000
    99  H          0.91870000       0.69040000       0.67220000
   100  H          0.08130000       0.19040000       0.82780000
   101  H          0.93900000       0.19650000       0.36780000
   102  H          0.06100000       0.69650000       0.13220000
   103  H          0.06100000       0.80350000       0.63220000
   104  H          0.93900000       0.30350000       0.86780000
   105  H          0.93810000       0.00580000       0.30860000
   106  H          0.06190000       0.50580000       0.19140000
   107  H          0.06190000      -0.00580000       0.69140000
   108  H          0.93810000       0.49420000       0.80860000
   109  H          0.08240000       0.92930000       0.21140000
   110  H          0.91760000       0.42930000       0.28860000
   111  H          0.91760000       0.07070000       0.78860000
   112  H          0.08240000       0.57070000       0.71140000
   113  H          0.22560000       0.04100000       0.17260000
   114  H          0.77440000       0.54100000       0.32740000
   115  H          0.77440000       0.95900000       0.82740000
   116  H          0.22560000       0.45900000       0.67260000
