data_DBEZLM
_symmetry_space_group_name_H-M    'P1'
_symmetry_Int_Tables_number       1
loop_
_symmetry_equiv_pos_site_id
_symmetry_equiv_pos_as_xyz
1 x,y,z
_cell_length_a                   10.8572
_cell_length_b                   24.4465
_cell_length_c                   8.7562
_cell_angle_alpha                90.0
_cell_angle_beta                 90.0
_cell_angle_gamma                90.0
loop_
_atom_site_label
_atom_site_type_symbol
_atom_site_fract_x
_atom_site_fract_y
_atom_site_fract_z
     1  C          0.94223000       0.98124000       0.19003000
     2  C          0.55777000       0.01876000       0.69003000
     3  C          0.44223000       0.51876000       0.80997000
     4  C          0.05777000       0.48124000       0.30997000
     5  C          0.05777000       0.01876000       0.80997000
     6  C          0.44223000       0.98124000       0.30997000
     7  C          0.55777000       0.48124000       0.19003000
     8  C          0.94223000       0.51876000       0.69003000
     9  C          0.06996000       0.23780000       0.66669000
    10  C          0.43004000       0.76220000       0.16669000
    11  C          0.56996000       0.26220000       0.33331000
    12  C          0.93004000       0.73780000       0.83331000
    13  C          0.93004000       0.76220000       0.33331000
    14  C          0.56996000       0.23780000       0.83331000
    15  C          0.43004000       0.73780000       0.66669000
    16  C          0.06996000       0.26220000       0.16669000
    17  C          0.13972000       0.19476000       0.61361000
    18  C          0.36028000       0.80524000       0.11361000
    19  C          0.63972000       0.30524000       0.38639000
    20  C          0.86028000       0.69476000       0.88639000
    21  C          0.86028000       0.80524000       0.38639000
    22  C          0.63972000       0.19476000       0.88639000
    23  C          0.36028000       0.69476000       0.61361000
    24  C          0.13972000       0.30524000       0.11361000
    25  C          0.08721000       0.15682000       0.51788000
    26  C          0.41279000       0.84318000       0.01788000
    27  C          0.58721000       0.34318000       0.48212000
    28  C          0.91279000       0.65682000       0.98212000
    29  C          0.91279000       0.84318000       0.48212000
    30  C          0.58721000       0.15682000       0.98212000
    31  C          0.41279000       0.65682000       0.51788000
    32  C          0.08721000       0.34318000       0.01788000
    33  C          0.89339000       0.03597000       0.23060000
    34  C          0.60661000       0.96403000       0.73060000
    35  C          0.39339000       0.46403000       0.76940000
    36  C          0.10661000       0.53597000       0.26940000
    37  C          0.10661000       0.96403000       0.76940000
    38  C          0.39339000       0.03597000       0.26940000
    39  C          0.60661000       0.53597000       0.23060000
    40  C          0.89339000       0.46403000       0.73060000
    41  C          0.95450000       0.07085000       0.33305000
    42  C          0.54550000       0.92915000       0.83305000
    43  C          0.45450000       0.42915000       0.66695000
    44  C          0.04550000       0.57085000       0.16695000
    45  C          0.04550000       0.92915000       0.66695000
    46  C          0.45450000       0.07085000       0.16695000
    47  C          0.54550000       0.57085000       0.33305000
    48  C          0.95450000       0.42915000       0.83305000
    49  C          0.90792000       0.12200000       0.36467000
    50  C          0.59208000       0.87800000       0.86467000
    51  C          0.40792000       0.37800000       0.63533000
    52  C          0.09208000       0.62200000       0.13533000
    53  C          0.09208000       0.87800000       0.63533000
    54  C          0.40792000       0.12200000       0.13533000
    55  C          0.59208000       0.62200000       0.36467000
    56  C          0.90792000       0.37800000       0.86467000
    57  C          0.87866000       0.94861000       0.08528000
    58  C          0.62134000       0.05139000       0.58528000
    59  C          0.37866000       0.55139000       0.91472000
    60  C          0.12134000       0.44861000       0.41472000
    61  C          0.12134000       0.05139000       0.91472000
    62  C          0.37866000       0.94861000       0.41472000
    63  C          0.62134000       0.44861000       0.08528000
    64  C          0.87866000       0.55139000       0.58528000
    65  C          0.92465000       0.89801000       0.04373000
    66  C          0.57535000       0.10199000       0.54373000
    67  C          0.42465000       0.60199000       0.95627000
    68  C          0.07535000       0.39801000       0.45627000
    69  C          0.07535000       0.10199000       0.95627000
    70  C          0.42465000       0.89801000       0.45627000
    71  C          0.57535000       0.39801000       0.04373000
    72  C          0.92465000       0.60199000       0.54373000
    73  C          0.03396000       0.88012000       0.10034000
    74  C          0.46604000       0.11988000       0.60034000
    75  C          0.53396000       0.61988000       0.89966000
    76  C          0.96604000       0.38012000       0.39966000
    77  C          0.96604000       0.11988000       0.89966000
    78  C          0.53396000       0.88012000       0.39966000
    79  C          0.46604000       0.38012000       0.10034000
    80  C          0.03396000       0.61988000       0.60034000
    81  C          0.09997000       0.91188000       0.20079000
    82  C          0.40003000       0.08812000       0.70079000
    83  C          0.59997000       0.58812000       0.79921000
    84  C          0.90003000       0.41188000       0.29921000
    85  C          0.90003000       0.08812000       0.79921000
    86  C          0.59997000       0.91188000       0.29921000
    87  C          0.40003000       0.41188000       0.20079000
    88  C          0.09997000       0.58812000       0.70079000
    89  C          0.05514000       0.96288000       0.24353000
    90  C          0.44486000       0.03712000       0.74353000
    91  C          0.55514000       0.53712000       0.75647000
    92  C          0.94486000       0.46288000       0.25647000
    93  C          0.94486000       0.03712000       0.75647000
    94  C          0.55514000       0.96288000       0.25647000
    95  C          0.44486000       0.46288000       0.24353000
    96  C          0.05514000       0.53712000       0.74353000
    97  C          0.96665000       0.16173000       0.47127000
    98  C          0.53335000       0.83827000       0.97127000
    99  C          0.46665000       0.33827000       0.52873000
   100  C          0.03335000       0.66173000       0.02873000
   101  C          0.03335000       0.83827000       0.52873000
   102  C          0.46665000       0.16173000       0.02873000
   103  C          0.53335000       0.66173000       0.47127000
   104  C          0.96665000       0.33827000       0.97127000
   105  C          0.89721000       0.20505000       0.52414000
   106  C          0.60279000       0.79495000       0.02414000
   107  C          0.39721000       0.29495000       0.47586000
   108  C          0.10279000       0.70505000       0.97586000
   109  C          0.10279000       0.79495000       0.47586000
   110  C          0.39721000       0.20505000       0.97586000
   111  C          0.60279000       0.70505000       0.52414000
   112  C          0.89721000       0.29495000       0.02414000
   113  C          0.94739000       0.24220000       0.62532000
   114  C          0.55261000       0.75780000       0.12532000
   115  C          0.44739000       0.25780000       0.37468000
   116  C          0.05261000       0.74220000       0.87468000
   117  C          0.05261000       0.75780000       0.37468000
   118  C          0.44739000       0.24220000       0.87468000
   119  C          0.55261000       0.74220000       0.62532000
   120  C          0.94739000       0.25780000       0.12532000
   121  H          0.79740000       0.96148000       0.04833000
   122  H          0.70260000       0.03852000       0.54833000
   123  H          0.29740000       0.53852000       0.95167000
   124  H          0.20260000       0.46148000       0.45167000
   125  H          0.20260000       0.03852000       0.95167000
   126  H          0.29740000       0.96148000       0.45167000
   127  H          0.70260000       0.46148000       0.04833000
   128  H          0.79740000       0.53852000       0.54833000
   129  H          0.87059000       0.87560000       0.97356000
   130  H          0.62941000       0.12440000       0.47356000
   131  H          0.37059000       0.62440000       0.02644000
   132  H          0.12941000       0.37560000       0.52644000
   133  H          0.12941000       0.12440000       0.02644000
   134  H          0.37059000       0.87560000       0.52644000
   135  H          0.62941000       0.37560000       0.97356000
   136  H          0.87059000       0.62440000       0.47356000
   137  H          0.07494000       0.84596000       0.06953000
   138  H          0.42506000       0.15404000       0.56953000
   139  H          0.57494000       0.65404000       0.93047000
   140  H          0.92506000       0.34596000       0.43047000
   141  H          0.92506000       0.15404000       0.93047000
   142  H          0.57494000       0.84596000       0.43047000
   143  H          0.42506000       0.34596000       0.06953000
   144  H          0.07494000       0.65404000       0.56953000
   145  H          0.18190000       0.89628000       0.23951000
   146  H          0.31810000       0.10372000       0.73951000
   147  H          0.68190000       0.60372000       0.76049000
   148  H          0.81810000       0.39628000       0.26049000
   149  H          0.81810000       0.10372000       0.76049000
   150  H          0.68190000       0.89628000       0.26049000
   151  H          0.31810000       0.39628000       0.23951000
   152  H          0.18190000       0.60372000       0.73951000
   153  H          0.10070000       0.97888000       0.31957000
   154  H          0.39930000       0.02112000       0.81957000
   155  H          0.60070000       0.52112000       0.68043000
   156  H          0.89930000       0.47888000       0.18043000
   157  H          0.89930000       0.02112000       0.68043000
   158  H          0.60070000       0.97888000       0.18043000
   159  H          0.39930000       0.47888000       0.31957000
   160  H          0.10070000       0.52112000       0.81957000
   161  H          0.81725000       0.20689000       0.48970000
   162  H          0.68275000       0.79311000      -0.01030000
   163  H          0.31725000       0.29311000       0.51030000
   164  H          0.18275000       0.70689000       0.01030000
   165  H          0.18275000       0.79311000       0.51030000
   166  H          0.31725000       0.20689000       0.01030000
   167  H          0.68275000       0.70689000       0.48970000
   168  H          0.81725000       0.29311000      -0.01030000
   169  H          0.89544000       0.27170000       0.66327000
   170  H          0.60456000       0.72830000       0.16327000
   171  H          0.39544000       0.22830000       0.33673000
   172  H          0.10456000       0.77170000       0.83673000
   173  H          0.10456000       0.72830000       0.33673000
   174  H          0.39544000       0.27170000       0.83673000
   175  H          0.60456000       0.77170000       0.66327000
   176  H          0.89544000       0.22830000       0.16327000
   177  H          0.10809000       0.26473000       0.73244000
   178  H          0.39191000       0.73527000       0.23244000
   179  H          0.60809000       0.23527000       0.26756000
   180  H          0.89191000       0.76473000       0.76756000
   181  H          0.89191000       0.73527000       0.26756000
   182  H          0.60809000       0.26473000       0.76756000
   183  H          0.39191000       0.76473000       0.73244000
   184  H          0.10809000       0.23527000       0.23244000
   185  H          0.23072000       0.19140000       0.64943000
   186  H          0.26928000       0.80860000       0.14943000
   187  H          0.73072000       0.30860000       0.35057000
   188  H          0.76928000       0.69140000       0.85057000
   189  H          0.76928000       0.80860000       0.35057000
   190  H          0.73072000       0.19140000       0.85057000
   191  H          0.26928000       0.69140000       0.64943000
   192  H          0.23072000       0.30860000       0.14943000
   193  H          0.14430000       0.13024000       0.48462000
   194  H          0.35570000       0.86976000      -0.01538000
   195  H          0.64430000       0.36976000       0.51538000
   196  H          0.85570000       0.63024000       0.01538000
   197  H          0.85570000       0.86976000       0.51538000
   198  H          0.64430000       0.13024000       0.01538000
   199  H          0.35570000       0.63024000       0.48462000
   200  H          0.14430000       0.36976000      -0.01538000
   201  H          0.03194000       0.06452000       0.38663000
   202  H          0.46806000       0.93548000       0.88663000
   203  H          0.53194000       0.43548000       0.61337000
   204  H          0.96806000       0.56452000       0.11337000
   205  H          0.96806000       0.93548000       0.61337000
   206  H          0.53194000       0.06452000       0.11337000
   207  H          0.46806000       0.56452000       0.38663000
   208  H          0.03194000       0.43548000       0.88663000
   209  H          0.78027000       0.10171000       0.22218000
   210  H          0.71973000       0.89829000       0.72218000
   211  H          0.28027000       0.39829000       0.77782000
   212  H          0.21973000       0.60171000       0.27782000
   213  H          0.21973000       0.89829000       0.77782000
   214  H          0.28027000       0.10171000       0.27782000
   215  H          0.71973000       0.60171000       0.22218000
   216  H          0.78027000       0.39829000       0.72218000
   217  O          0.79147000       0.05034000       0.16984000
   218  O          0.70853000       0.94966000       0.66984000
   219  O          0.29147000       0.44966000       0.83016000
   220  O          0.20853000       0.55034000       0.33016000
   221  O          0.20853000       0.94966000       0.83016000
   222  O          0.29147000       0.05034000       0.33016000
   223  O          0.70853000       0.55034000       0.16984000
   224  O          0.79147000       0.44966000       0.66984000
   225  O          0.80670000       0.13911000       0.30089000
   226  O          0.69330000       0.86089000       0.80089000
   227  O          0.30670000       0.36089000       0.69911000
   228  O          0.19330000       0.63911000       0.19911000
   229  O          0.19330000       0.86089000       0.69911000
   230  O          0.30670000       0.13911000       0.19911000
   231  O          0.69330000       0.63911000       0.30089000
   232  O          0.80670000       0.36089000       0.80089000
