data_DBEZLM03
_symmetry_space_group_name_H-M    'P1'
_symmetry_Int_Tables_number       1
loop_
_symmetry_equiv_pos_site_id
_symmetry_equiv_pos_as_xyz
1 x,y,z
_cell_length_a                   11.7065
_cell_length_b                   7.6684
_cell_length_c                   25.5728
_cell_angle_alpha                90.0
_cell_angle_beta                 90.0
_cell_angle_gamma                90.0
loop_
_atom_site_label
_atom_site_type_symbol
_atom_site_fract_x
_atom_site_fract_y
_atom_site_fract_z
     1  C          0.26032000       0.24115000       0.62391000
     2  C          0.23968000       0.75885000       0.12391000
     3  C          0.76032000       0.25885000       0.37609000
     4  C          0.73968000       0.74115000       0.87609000
     5  C          0.73968000       0.75885000       0.37609000
     6  C          0.76032000       0.24115000       0.87609000
     7  C          0.23968000       0.74115000       0.62391000
     8  C          0.26032000       0.25885000       0.12391000
     9  C          0.21862000       0.19325000       0.57521000
    10  C          0.28138000       0.80675000       0.07521000
    11  C          0.71862000       0.30675000       0.42479000
    12  C          0.78138000       0.69325000       0.92479000
    13  C          0.78138000       0.80675000       0.42479000
    14  C          0.71862000       0.19325000       0.92479000
    15  C          0.28138000       0.69325000       0.57521000
    16  C          0.21862000       0.30675000       0.07521000
    17  C          0.29162000       0.14984000       0.53471000
    18  C          0.20838000       0.85016000       0.03471000
    19  C          0.79162000       0.35016000       0.46529000
    20  C          0.70838000       0.64984000       0.96529000
    21  C          0.70838000       0.85016000       0.46529000
    22  C          0.79162000       0.14984000       0.96529000
    23  C          0.20838000       0.64984000       0.53471000
    24  C          0.29162000       0.35016000       0.03471000
    25  C          0.25393000       0.08324000       0.48341000
    26  C          0.24607000       0.91676000       0.98341000
    27  C          0.75393000       0.41676000       0.51659000
    28  C          0.74607000       0.58324000       0.01659000
    29  C          0.74607000       0.91676000       0.51659000
    30  C          0.75393000       0.08324000       0.01659000
    31  C          0.24607000       0.58324000       0.48341000
    32  C          0.25393000       0.41676000       0.98341000
    33  C          0.14003000       0.07995000       0.46891000
    34  C          0.35997000       0.92005000       0.96891000
    35  C          0.64003000       0.42005000       0.53109000
    36  C          0.85997000       0.57995000       0.03109000
    37  C          0.85997000       0.92005000       0.53109000
    38  C          0.64003000       0.07995000       0.03109000
    39  C          0.35997000       0.57995000       0.46891000
    40  C          0.14003000       0.42005000       0.96891000
    41  C          0.10833000       0.01245000       0.42081000
    42  C          0.39167000      -0.01245000       0.92081000
    43  C          0.60833000       0.48755000       0.57919000
    44  C          0.89167000       0.51245000       0.07919000
    45  C          0.89167000      -0.01245000       0.57919000
    46  C          0.60833000       0.01245000       0.07919000
    47  C          0.39167000       0.51245000       0.42081000
    48  C          0.10833000       0.48755000       0.92081000
    49  C          0.18943000       0.95255000       0.38641000
    50  C          0.31057000       0.04745000       0.88641000
    51  C          0.68943000       0.54745000       0.61359000
    52  C          0.81057000       0.45255000       0.11359000
    53  C          0.81057000       0.04745000       0.61359000
    54  C          0.68943000       0.95255000       0.11359000
    55  C          0.31057000       0.45255000       0.38641000
    56  C          0.18943000       0.54745000       0.88641000
    57  C          0.30283000       0.95825000       0.40031000
    58  C          0.19717000       0.04175000       0.90031000
    59  C          0.80283000       0.54175000       0.59969000
    60  C          0.69717000       0.45825000       0.09969000
    61  C          0.69717000       0.04175000       0.59969000
    62  C          0.80283000       0.95825000       0.09969000
    63  C          0.19717000       0.45825000       0.40031000
    64  C          0.30283000       0.54175000       0.90031000
    65  C          0.33493000       0.02345200       0.44821000
    66  C          0.16507000       0.97654800       0.94821000
    67  C          0.83493000       0.47654800       0.55179000
    68  C          0.66507000       0.52345200       0.05179000
    69  C          0.66507000       0.97654800       0.55179000
    70  C          0.83493000       0.02345200       0.05179000
    71  C          0.16507000       0.52345200       0.44821000
    72  C          0.33493000       0.47654800       0.94821000
    73  C          0.18642000       0.27874000       0.66941000
    74  C          0.31358000       0.72126000       0.16941000
    75  C          0.68642000       0.22126000       0.33059000
    76  C          0.81358000       0.77874000       0.83059000
    77  C          0.81358000       0.72126000       0.33059000
    78  C          0.68642000       0.27874000       0.83059000
    79  C          0.31358000       0.77874000       0.66941000
    80  C          0.18642000       0.22126000       0.16941000
    81  C          0.22953000       0.26305000       0.71921000
    82  C          0.27047000       0.73695000       0.21921000
    83  C          0.72953000       0.23695000       0.28079000
    84  C          0.77047000       0.76305000       0.78079000
    85  C          0.77047000       0.73695000       0.28079000
    86  C          0.72953000       0.26305000       0.78079000
    87  C          0.27047000       0.76305000       0.71921000
    88  C          0.22953000       0.23695000       0.21921000
    89  C          0.16323000       0.29845000       0.76221000
    90  C          0.33677000       0.70155000       0.26221000
    91  C          0.66323000       0.20155000       0.23779000
    92  C          0.83677000       0.79845000       0.73779000
    93  C          0.83677000       0.70155000       0.23779000
    94  C          0.66323000       0.29845000       0.73779000
    95  C          0.33677000       0.79845000       0.76221000
    96  C          0.16323000       0.20155000       0.26221000
    97  C          0.05443000       0.35076000       0.75621000
    98  C          0.44557000       0.64924000       0.25621000
    99  C          0.55443000       0.14924000       0.24379000
   100  C          0.94557000       0.85076000       0.74379000
   101  C          0.94557000       0.64924000       0.24379000
   102  C          0.55443000       0.35076000       0.74379000
   103  C          0.44557000       0.85076000       0.75621000
   104  C          0.05443000       0.14924000       0.25621000
   105  C          0.00783000       0.36736000       0.70681000
   106  C          0.49217000       0.63264000       0.20681000
   107  C          0.50783000       0.13264000       0.29319000
   108  C         -0.00783000       0.86736000       0.79319000
   109  C         -0.00783000       0.63264000       0.29319000
   110  C          0.50783000       0.36736000       0.79319000
   111  C          0.49217000       0.86736000       0.70681000
   112  C          0.00783000       0.13264000       0.20681000
   113  C          0.07393000       0.33125000       0.66381000
   114  C          0.42607000       0.66875000       0.16381000
   115  C          0.57393000       0.16875000       0.33619000
   116  C          0.92607000       0.83125000       0.83619000
   117  C          0.92607000       0.66875000       0.33619000
   118  C          0.57393000       0.33125000       0.83619000
   119  C          0.42607000       0.83125000       0.66381000
   120  C          0.07393000       0.16875000       0.16381000
   121  O          0.36892000       0.25763000       0.63175800
   122  O          0.13108000       0.74237000       0.13175800
   123  O          0.86892000       0.24237000       0.36824200
   124  O          0.63108000       0.75763000       0.86824200
   125  O          0.63108000       0.74237000       0.36824200
   126  O          0.86892000       0.25763000       0.86824200
   127  O          0.13108000       0.75763000       0.63175800
   128  O          0.36892000       0.24237000       0.13175800
   129  O          0.40132000       0.16183000       0.54146800
   130  O          0.09868000       0.83817000       0.04146800
   131  O          0.90132000       0.33817000       0.45853200
   132  O          0.59868000       0.66183000       0.95853200
   133  O          0.59868000       0.83817000       0.45853200
   134  O          0.90132000       0.16183000       0.95853200
   135  O          0.09868000       0.66183000       0.54146800
   136  O          0.40132000       0.33817000       0.04146800
   137  H          0.40230000       0.19440000       0.58810000
   138  H          0.09770000       0.80560000       0.08810000
   139  H          0.90230000       0.30560000       0.41190000
   140  H          0.59770000       0.69440000       0.91190000
   141  H          0.59770000       0.80560000       0.41190000
   142  H          0.90230000       0.19440000       0.91190000
   143  H          0.09770000       0.69440000       0.58810000
   144  H          0.40230000       0.30560000       0.08810000
   145  H          0.13720000       0.17230000       0.57128000
   146  H          0.36280000       0.82770000       0.07128000
   147  H          0.63720000       0.32770000       0.42872000
   148  H          0.86280000       0.67230000       0.92872000
   149  H          0.86280000       0.82770000       0.42872000
   150  H          0.63720000       0.17230000       0.92872000
   151  H          0.36280000       0.67230000       0.57128000
   152  H          0.13720000       0.32770000       0.07128000
   153  H          0.07900000       0.12400000       0.49200000
   154  H          0.42100000       0.87600000       0.99200000
   155  H          0.57900000       0.37600000       0.50800000
   156  H          0.92100000       0.62400000       0.00800000
   157  H          0.92100000       0.87600000       0.50800000
   158  H          0.57900000       0.12400000       0.00800000
   159  H          0.42100000       0.62400000       0.49200000
   160  H          0.07900000       0.37600000       0.99200000
   161  H          0.02500000       0.03100000       0.41000000
   162  H          0.47500000       0.96900000       0.91000000
   163  H          0.52500000       0.46900000       0.59000000
   164  H          0.97500000       0.53100000       0.09000000
   165  H          0.97500000       0.96900000       0.59000000
   166  H          0.52500000       0.03100000       0.09000000
   167  H          0.47500000       0.53100000       0.41000000
   168  H          0.02500000       0.46900000       0.91000000
   169  H          0.17000000       0.90900000       0.35100000
   170  H          0.33000000       0.09100000       0.85100000
   171  H          0.67000000       0.59100000       0.64900000
   172  H          0.83000000       0.40900000       0.14900000
   173  H          0.83000000       0.09100000       0.64900000
   174  H          0.67000000       0.90900000       0.14900000
   175  H          0.33000000       0.40900000       0.35100000
   176  H          0.17000000       0.59100000       0.85100000
   177  H          0.35900000       0.92500000       0.37800000
   178  H          0.14100000       0.07500000       0.87800000
   179  H          0.85900000       0.57500000       0.62200000
   180  H          0.64100000       0.42500000       0.12200000
   181  H          0.64100000       0.07500000       0.62200000
   182  H          0.85900000       0.92500000       0.12200000
   183  H          0.14100000       0.42500000       0.37800000
   184  H          0.35900000       0.57500000       0.87800000
   185  H          0.41400000       0.02400000       0.45900000
   186  H          0.08600000       0.97600000       0.95900000
   187  H          0.91400000       0.47600000       0.54100000
   188  H          0.58600000       0.52400000       0.04100000
   189  H          0.58600000       0.97600000       0.54100000
   190  H          0.91400000       0.02400000       0.04100000
   191  H          0.08600000       0.52400000       0.45900000
   192  H          0.41400000       0.47600000       0.95900000
   193  H          0.30600000       0.23000000       0.72000000
   194  H          0.19400000       0.77000000       0.22000000
   195  H          0.80600000       0.27000000       0.28000000
   196  H          0.69400000       0.73000000       0.78000000
   197  H          0.69400000       0.77000000       0.28000000
   198  H          0.80600000       0.23000000       0.78000000
   199  H          0.19400000       0.73000000       0.72000000
   200  H          0.30600000       0.27000000       0.22000000
   201  H          0.19900000       0.28500000       0.79800000
   202  H          0.30100000       0.71500000       0.29800000
   203  H          0.69900000       0.21500000       0.20200000
   204  H          0.80100000       0.78500000       0.70200000
   205  H          0.80100000       0.71500000       0.20200000
   206  H          0.69900000       0.28500000       0.70200000
   207  H          0.30100000       0.78500000       0.79800000
   208  H          0.19900000       0.21500000       0.29800000
   209  H          0.00600000       0.37600000       0.78700000
   210  H          0.49400000       0.62400000       0.28700000
   211  H          0.50600000       0.12400000       0.21300000
   212  H         -0.00600000       0.87600000       0.71300000
   213  H         -0.00600000       0.62400000       0.21300000
   214  H          0.50600000       0.37600000       0.71300000
   215  H          0.49400000       0.87600000       0.78700000
   216  H          0.00600000       0.12400000       0.28700000
   217  H          0.93100000       0.40000000       0.70100000
   218  H          0.56900000       0.60000000       0.20100000
   219  H          0.43100000       0.10000000       0.29900000
   220  H          0.06900000       0.90000000       0.79900000
   221  H          0.06900000       0.60000000       0.29900000
   222  H          0.43100000       0.40000000       0.79900000
   223  H          0.56900000       0.90000000       0.70100000
   224  H          0.93100000       0.10000000       0.20100000
   225  H          0.03900000       0.34500000       0.62900000
   226  H          0.46100000       0.65500000       0.12900000
   227  H          0.53900000       0.15500000       0.37100000
   228  H          0.96100000       0.84500000       0.87100000
   229  H          0.96100000       0.65500000       0.37100000
   230  H          0.53900000       0.34500000       0.87100000
   231  H          0.46100000       0.84500000       0.62900000
   232  H          0.03900000       0.15500000       0.12900000
