data_DCLBEN03
_symmetry_space_group_name_H-M    'P1'
_symmetry_Int_Tables_number       1
loop_
_symmetry_equiv_pos_site_id
_symmetry_equiv_pos_as_xyz
1 x,y,z
_cell_length_a                   8.6242
_cell_length_b                   6.0212
_cell_length_c                   7.4142
_cell_angle_alpha                90.0
_cell_angle_beta                 127.511
_cell_angle_gamma                90.0
loop_
_atom_site_label
_atom_site_type_symbol
_atom_site_fract_x
_atom_site_fract_y
_atom_site_fract_z
     1  Cl         0.35790000       0.68030000       0.23240000
     2  Cl         0.64210000       0.18030000       0.26760000
     3  Cl         0.64210000       0.31970000       0.76760000
     4  Cl         0.35790000       0.81970000       0.73240000
     5  C          0.15810000       0.86100000       0.10070000
     6  C          0.84190000       0.36100000       0.39930000
     7  C          0.84190000       0.13900000       0.89930000
     8  C          0.15810000       0.63900000       0.60070000
     9  C          0.18270000       0.07010000       0.19390000
    10  C          0.81730000       0.57010000       0.30610000
    11  C          0.81730000       0.92990000       0.80610000
    12  C          0.18270000       0.42990000       0.69390000
    13  C         -0.02160000       0.78890000       0.90810000
    14  C          0.02160000       0.28890000       0.59190000
    15  C          0.02160000       0.21110000       0.09190000
    16  C         -0.02160000       0.71110000       0.40810000
    17  H          0.31200000       0.11700000       0.33400000
    18  H          0.68800000       0.61700000       0.16600000
    19  H          0.68800000       0.88300000       0.66600000
    20  H          0.31200000       0.38300000       0.83400000
    21  H          0.96200000       0.63400000       0.80700000
    22  H          0.03800000       0.13400000       0.69300000
    23  H          0.03800000       0.36600000       0.19300000
    24  H          0.96200000       0.86600000       0.30700000
