data_DCLBEN01
_symmetry_space_group_name_H-M    'P1'
_symmetry_Int_Tables_number       1
loop_
_symmetry_equiv_pos_site_id
_symmetry_equiv_pos_as_xyz
1 x,y,z
_cell_length_a                   14.7623
_cell_length_b                   5.8322
_cell_length_c                   4.0392
_cell_angle_alpha                90.0
_cell_angle_beta                 112.782
_cell_angle_gamma                90.0
loop_
_atom_site_label
_atom_site_type_symbol
_atom_site_fract_x
_atom_site_fract_y
_atom_site_fract_z
     1  Cl         0.16499800       0.17812000       0.47753000
     2  Cl         0.33500200       0.67812000       0.52247000
     3  Cl         0.83500200       0.82188000       0.52247000
     4  Cl         0.66499800       0.32188000       0.47753000
     5  C          0.07243000       0.35956000       0.48921000
     6  C          0.42757000       0.85956000       0.51079000
     7  C          0.92757000       0.64044000       0.51079000
     8  C          0.57243000       0.14044000       0.48921000
     9  C          0.09693000       0.56027000       0.68161000
    10  C          0.40307000       0.06027000       0.31839000
    11  C          0.90307000       0.43973000       0.31839000
    12  C          0.59693000       0.93973000       0.68161000
    13  H          0.16253000       0.59987000       0.80441000
    14  H          0.33747000       0.09987000       0.19559000
    15  H          0.83747000       0.40013000       0.19559000
    16  H          0.66253000       0.90013000       0.80441000
    17  C          0.97627000       0.29857000       0.30961000
    18  C          0.52373000       0.79857000       0.69039000
    19  C          0.02373000       0.70143000       0.69039000
    20  C          0.47627000       0.20143000       0.30961000
    21  H          0.96057000       0.16177000       0.18171000
    22  H          0.53943000       0.66177000       0.81829000
    23  H          0.03943000       0.83823000       0.81829000
    24  H          0.46057000       0.33823000       0.18171000
