data_DCLBEN05
_symmetry_space_group_name_H-M    'P1'
_symmetry_Int_Tables_number       1
loop_
_symmetry_equiv_pos_site_id
_symmetry_equiv_pos_as_xyz
1 x,y,z
_cell_length_a                   7.3612
_cell_length_b                   5.9631
_cell_length_c                   3.9591
_cell_angle_alpha                92.132
_cell_angle_beta                 113.242
_cell_angle_gamma                91.422
loop_
_atom_site_label
_atom_site_type_symbol
_atom_site_fract_x
_atom_site_fract_y
_atom_site_fract_z
     1  Cl         0.67080000       0.30340000       0.03140000
     2  Cl         0.32920000       0.69660000      -0.03140000
     3  C          0.85510000       0.13150000       0.01660000
     4  C          0.14490000       0.86850000      -0.01660000
     5  C          0.05080000       0.20920000       0.18770000
     6  C          0.94920000       0.79080000       0.81230000
     7  C          0.79990000       0.92460000       0.82150000
     8  C          0.20010000       0.07540000       0.17850000
     9  H          0.06600000       0.35100000       0.28400000
    10  H          0.93400000       0.64900000       0.71600000
    11  H          0.67600000       0.88500000       0.68800000
    12  H          0.32400000       0.11500000       0.31200000
