data_DEDMUX02
_symmetry_space_group_name_H-M    'P1'
_symmetry_Int_Tables_number       1
loop_
_symmetry_equiv_pos_site_id
_symmetry_equiv_pos_as_xyz
1 x,y,z
_cell_length_a                   7.85826
_cell_length_b                   6.12794
_cell_length_c                   24.416417
_cell_angle_alpha                90.0
_cell_angle_beta                 98.2112
_cell_angle_gamma                90.0
loop_
_atom_site_label
_atom_site_type_symbol
_atom_site_fract_x
_atom_site_fract_y
_atom_site_fract_z
     1  C          0.27403190       0.81542000       0.29175600
     2  C          0.72596810       0.31542000       0.20824400
     3  C          0.72596810       0.18458000       0.70824400
     4  C          0.27403190       0.68458000       0.79175600
     5  C          0.02621190       0.70842000       0.17039600
     6  C          0.97378810       0.20842000       0.32960400
     7  C          0.97378810       0.29158000       0.82960400
     8  C          0.02621190       0.79158000       0.67039600
     9  C          0.51332000       0.10183000       0.33254600
    10  C          0.48668000       0.60183000       0.16745400
    11  C          0.48668000       0.89817000       0.66745400
    12  C          0.51332000       0.39817000       0.83254600
    13  H          0.60923400       0.18549000       0.32272800
    14  H          0.39076600       0.68549000       0.17727200
    15  H          0.39076600       0.81451000       0.67727200
    16  H          0.60923400       0.31451000       0.82272800
    17  H          0.46603300       0.17885500       0.36164000
    18  H          0.53396700       0.67885500       0.13836000
    19  H          0.53396700       0.82114500       0.63836000
    20  H          0.46603300       0.32114500       0.86164000
    21  C          0.57342000       0.87623000       0.35244600
    22  C          0.42658000       0.37623000       0.14755400
    23  C          0.42658000       0.12377000       0.64755400
    24  C          0.57342000       0.62377000       0.85244600
    25  H          0.63775000       0.88517700       0.38936000
    26  H          0.36225000       0.38517700       0.11064000
    27  H          0.36225000       0.11482300       0.61064000
    28  H          0.63775000       0.61482300       0.88936000
    29  H          0.64769300       0.81478500       0.32792100
    30  H          0.35230700       0.31478500       0.17207900
    31  H          0.35230700       0.18521500       0.67207900
    32  H          0.64769300       0.68521500       0.82792100
    33  C          0.94689810       0.83973000       0.12140600
    34  C          0.05310190       0.33973000       0.37859400
    35  C          0.05310190       0.16027000       0.87859400
    36  C          0.94689810       0.66027000       0.62140600
    37  C          0.82598000       0.73653000       0.08220700
    38  C          0.17402000       0.23653000       0.41779300
    39  C          0.17402000       0.26347000       0.91779300
    40  C          0.82598000       0.76347000       0.58220700
    41  H          0.79226100       0.59387900       0.08805900
    42  H          0.20773900       0.09387900       0.41194100
    43  H          0.20773900       0.40612100       0.91194100
    44  H          0.79226100       0.90612100       0.58805900
    45  C          0.75638000       0.84673000       0.03462600
    46  C          0.24362000       0.34673000       0.46537400
    47  C          0.24362000       0.15327000       0.96537400
    48  C          0.75638000       0.65327000       0.53462600
    49  H          0.67429100       0.78099500       0.00859200
    50  H          0.32570900       0.28099500       0.49140800
    51  H          0.32570900       0.21900500       0.99140800
    52  H          0.67429100       0.71900500       0.50859200
    53  C          0.81228000       0.05733000       0.02693600
    54  C          0.18772000       0.55733000       0.47306400
    55  C          0.18772000       0.94267000       0.97306400
    56  C          0.81228000       0.44267000       0.52693600
    57  C          0.93378000       0.16283000       0.06433600
    58  C          0.06622000       0.66283000       0.43566400
    59  C          0.06622000       0.83717000       0.93566400
    60  C          0.93378000       0.33717000       0.56433600
    61  H          0.97001200       0.30349000       0.05756400
    62  H          0.02998800       0.80349000       0.44243600
    63  H          0.02998800       0.69651000       0.94243600
    64  H          0.97001200       0.19651000       0.55756400
    65  C          0.00035190       0.05162000       0.11251600
    66  C         -0.00035190       0.55162000       0.38748400
    67  C         -0.00035190       0.94838000       0.88748400
    68  C          0.00035190       0.44838000       0.61251600
    69  H          0.08060800       0.11930000       0.13875700
    70  H          0.91939200       0.61930000       0.36124300
    71  H          0.91939200       0.88070000       0.86124300
    72  H          0.08060800       0.38070000       0.63875700
    73  N          0.14883170       0.70932000       0.26448500
    74  N          0.85116830       0.20932000       0.23551500
    75  N          0.85116830       0.29068000       0.73551500
    76  N          0.14883170       0.79068000       0.76448500
    77  N          0.07176170       0.82712000       0.21740500
    78  N          0.92823830       0.32712000       0.28259500
    79  N          0.92823830       0.17288000       0.78259500
    80  N          0.07176170       0.67288000       0.71740500
    81  H          0.01630000       0.93740000       0.22358000
    82  H         -0.01630000       0.43740000       0.27642000
    83  H         -0.01630000       0.06260000       0.77642000
    84  H          0.01630000       0.56260000       0.72358000
    85  N          0.73798810       0.17543000       0.97658400
    86  N          0.26201190       0.67543000       0.52341600
    87  N          0.26201190       0.82457000       0.02341600
    88  N          0.73798810       0.32457000       0.47658400
    89  O          0.05660140       0.51366180       0.16611500
    90  O          0.94339860       0.01366180       0.33388500
    91  O          0.94339860       0.48633820       0.83388500
    92  O          0.05660140      -0.01366180       0.66611500
    93  O          0.64159820       0.07532000       0.94130500
    94  O          0.35840180       0.57532000       0.55869500
    95  O          0.35840180       0.92468000       0.05869500
    96  O          0.64159820       0.42468000       0.44130500
    97  O          0.77568000       0.36822000       0.97235400
    98  O          0.22432000       0.86822000       0.52764600
    99  O          0.22432000       0.63178000       0.02764600
   100  O          0.77568000       0.13178000       0.47235400
   101  S          0.34971500       0.06971600       0.27249200
   102  S          0.65028500       0.56971600       0.22750800
   103  S          0.65028500       0.93028400       0.72750800
   104  S          0.34971500       0.43028400       0.77249200
   105  S          0.38495500       0.70489600       0.35298200
   106  S          0.61504500       0.20489600       0.14701800
   107  S          0.61504500       0.29510400       0.64701800
   108  S          0.38495500       0.79510400       0.85298200
