data_DEDMUX01
_symmetry_space_group_name_H-M    'P1'
_symmetry_Int_Tables_number       1
loop_
_symmetry_equiv_pos_site_id
_symmetry_equiv_pos_as_xyz
1 x,y,z
_cell_length_a                   5.05062
_cell_length_b                   8.04413
_cell_length_c                   14.19545
_cell_angle_alpha                96.87701
_cell_angle_beta                 95.1342
_cell_angle_gamma                96.30601
loop_
_atom_site_label
_atom_site_type_symbol
_atom_site_fract_x
_atom_site_fract_y
_atom_site_fract_z
     1  C          0.95193000       0.83114170       0.23898100
     2  C          0.04807000       0.16885830       0.76101900
     3  C          0.23803000       0.79658170       0.46338100
     4  C          0.76197000       0.20341830       0.53661900
     5  C          0.62463000       0.67488180       0.09203100
     6  C          0.37537000       0.32511820       0.90796900
     7  H          0.72445300       0.58475500       0.06891100
     8  H          0.27554700       0.41524500       0.93108900
     9  H          0.43925300       0.64672600       0.06525000
    10  H          0.56074700       0.35327400       0.93475000
    11  C          0.74083000       0.84032180       0.06236100
    12  C          0.25917000       0.15967820       0.93763900
    13  H          0.61964800       0.92480200       0.07260500
    14  H          0.38035200       0.07519800       0.92739500
    15  H          0.76838300       0.82524200      -0.00473200
    16  H          0.23161700       0.17475800       0.00473200
    17  C          0.16753000       0.76173170       0.56009100
    18  C          0.83247000       0.23826830       0.43990900
    19  C          0.35593000       0.82985180       0.63692100
    20  C          0.64407000       0.17014820       0.36307900
    21  H          0.51003700       0.89666000       0.62641900
    22  H          0.48996300       0.10334000       0.37358100
    23  C          0.31463000       0.79855180       0.72838100
    24  C          0.68537000       0.20144820       0.27161900
    25  H          0.43849700       0.84420600       0.77992800
    26  H          0.56150300       0.15579400       0.22007200
    27  C          0.08413000       0.69744170       0.74134100
    28  C          0.91587000       0.30255830       0.25865900
    29  C          0.89323000       0.62754170       0.66716100
    30  C          0.10677000       0.37245830       0.33283900
    31  H          0.74123400       0.55927800       0.67818100
    32  H          0.25876600       0.44072200       0.32181900
    33  C          0.93493000       0.66220170       0.57555100
    34  C          0.06507000       0.33779830       0.42444900
    35  H          0.80776800       0.61903000       0.52454600
    36  H          0.19223200       0.38097000       0.47545400
    37  N          0.10792000       0.87801150       0.31583800
    38  N          0.89208000       0.12198850       0.68416200
    39  N          0.03352000       0.81433150       0.39825800
    40  N         -0.03352000       0.18566850       0.60174200
    41  H          0.88140000       0.81520000       0.41181300
    42  H          0.11860000       0.18480000       0.58818700
    43  N          0.04173000       0.66466150       0.83894900
    44  N          0.95827000       0.33533850       0.16105100
    45  O          0.47252000       0.80828140       0.44588700
    46  O          0.52748000       0.19171860       0.55411300
    47  O          0.21662000       0.72301130       0.90382700
    48  O          0.78338000       0.27698870       0.09617300
    49  O          0.83252000       0.58172150       0.85171800
    50  O          0.16748000       0.41827850       0.14828200
    51  S          0.64609700       0.69932400       0.22165200
    52  S          0.35390300       0.30067600       0.77834800
    53  S          0.05729700       0.90621400       0.13483200
    54  S          0.94270300       0.09378600       0.86516800
