data_DEDMUX
_symmetry_space_group_name_H-M    'P1'
_symmetry_Int_Tables_number       1
loop_
_symmetry_equiv_pos_site_id
_symmetry_equiv_pos_as_xyz
1 x,y,z
_cell_length_a                   15.06092
_cell_length_b                   5.040801
_cell_length_c                   16.09542
_cell_angle_alpha                90.0
_cell_angle_beta                 112.72
_cell_angle_gamma                90.0
loop_
_atom_site_label
_atom_site_type_symbol
_atom_site_fract_x
_atom_site_fract_y
_atom_site_fract_z
     1  C          0.23701900       0.94783000       0.45401800
     2  C          0.76298100       0.44783000       0.04598200
     3  C          0.76298100       0.05217000       0.54598200
     4  C          0.23701900       0.55217000       0.95401800
     5  C          0.46277900       0.70613000       0.58175800
     6  C          0.53722100       0.20613000       0.91824200
     7  C          0.53722100       0.29387000       0.41824200
     8  C          0.46277900       0.79387000       0.08175800
     9  C          0.09051900       0.21463000       0.46177900
    10  C          0.90948100       0.71463000       0.03822100
    11  C          0.90948100       0.78537000       0.53822100
    12  C          0.09051900       0.28537000       0.96177900
    13  H          0.07083900       0.09347200       0.49831300
    14  H          0.92916100       0.59347200       0.00168700
    15  H          0.92916100       0.90652800       0.50168700
    16  H          0.07083900       0.40652800      -0.00168700
    17  H          0.06227000       0.38698500       0.46261500
    18  H          0.93773000       0.88698500       0.03738500
    19  H          0.93773000       0.61301500       0.53738500
    20  H          0.06227000       0.11301500       0.96261500
    21  C          0.05734900       0.11203000       0.36573900
    22  C          0.94265100       0.61203000       0.13426100
    23  C          0.94265100       0.88797000       0.63426100
    24  C          0.05734900       0.38797000       0.86573900
    25  H          0.06463900       0.24870200       0.32641500
    26  H          0.93536100       0.74870200       0.17358500
    27  H          0.93536100       0.75129800       0.67358500
    28  H          0.06463900       0.25129800       0.82641500
    29  H         -0.00990400       0.06082700       0.34387200
    30  H          0.00990400       0.56082700       0.15612800
    31  H          0.00990400       0.93917300       0.65612800
    32  H         -0.00990400       0.43917300       0.84387200
    33  C          0.55798900       0.80163000       0.64870800
    34  C          0.44201100       0.30163000       0.85129200
    35  C          0.44201100       0.19837000       0.35129200
    36  C          0.55798900       0.69837000       0.14870800
    37  C          0.63923900       0.65753000       0.65369800
    38  C          0.36076100       0.15753000       0.84630200
    39  C          0.36076100       0.34247000       0.34630200
    40  C          0.63923900       0.84247000       0.15369800
    41  H          0.63258300       0.51255700       0.61600900
    42  H          0.36741700       0.01255700       0.88399100
    43  H          0.36741700       0.48744300       0.38399100
    44  H          0.63258300      -0.01255700       0.11600900
    45  C          0.72944900       0.73023000       0.71459900
    46  C          0.27055100       0.23023000       0.78540100
    47  C          0.27055100       0.26977000       0.28540100
    48  C          0.72944900       0.76977000       0.21459900
    49  H          0.78396800       0.63623300       0.71826500
    50  H          0.21603200       0.13623300       0.78173500
    51  H          0.21603200       0.36376700       0.28173500
    52  H          0.78396800       0.86376700       0.21826500
    53  C          0.73666900       0.94643000       0.77000800
    54  C          0.26333100       0.44643000       0.72999200
    55  C          0.26333100       0.05357000       0.22999200
    56  C          0.73666900       0.55357000       0.27000800
    57  C          0.65751900       0.09073000       0.76768800
    58  C          0.34248100       0.59073000       0.73231200
    59  C          0.34248100       0.90927000       0.23231200
    60  C          0.65751900       0.40927000       0.26768800
    61  H          0.66458300       0.23283100       0.80656400
    62  H          0.33541700       0.73283100       0.69343600
    63  H          0.33541700       0.76716900       0.19343600
    64  H          0.66458300       0.26716900       0.30656400
    65  C          0.56734900       0.01773000       0.70581800
    66  C          0.43265100       0.51773000       0.79418200
    67  C          0.43265100      -0.01773000       0.29418200
    68  C          0.56734900       0.48227000       0.20581800
    69  H          0.51311000       0.11271400       0.70238800
    70  H          0.48689000       0.61271400       0.79761200
    71  H          0.48689000       0.88728600       0.29761200
    72  H          0.51311000       0.38728600       0.20238800
    73  N          0.31362800       0.81272000       0.47039700
    74  N          0.68637200       0.31272000       0.02960300
    75  N          0.68637200       0.18728000       0.52960300
    76  N          0.31362800       0.68728000       0.97039700
    77  N          0.39653700       0.89702000       0.54177700
    78  N          0.60346300       0.39702000       0.95822300
    79  N          0.60346300       0.10298000       0.45822300
    80  N          0.39653700       0.60298000       0.04177700
    81  H          0.41151100       0.06040000       0.54921100
    82  H          0.58848900       0.56040000       0.95078900
    83  H          0.58848900       0.93960000       0.45078900
    84  H          0.41151100       0.43960000       0.04921100
    85  N          0.83275700       0.02542000       0.83377700
    86  N          0.16724300       0.52542000       0.66622300
    87  N          0.16724300      -0.02542000       0.16622300
    88  N          0.83275700       0.47458000       0.33377700
    89  O          0.44738600       0.46871180       0.56594600
    90  O          0.55261400       0.96871180       0.93405400
    91  O          0.55261400       0.53128820       0.43405400
    92  O          0.44738600       0.03128820       0.06594600
    93  O          0.90200600       0.88702000       0.83924600
    94  O          0.09799400       0.38702000       0.66075400
    95  O          0.09799400       0.11298000       0.16075400
    96  O          0.90200600       0.61298000       0.33924600
    97  O          0.83989700       0.22712000       0.87863700
    98  O          0.16010300       0.72712000       0.62136300
    99  O          0.16010300       0.77288000       0.12136300
   100  O          0.83989700       0.27288000       0.37863700
   101  S          0.22099200       0.23996600       0.50580200
   102  S          0.77900800       0.73996600      -0.00580200
   103  S          0.77900800       0.76003400       0.49419800
   104  S          0.22099200       0.26003400       0.00580200
   105  S          0.13160200       0.82734600       0.36729200
   106  S          0.86839800       0.32734600       0.13270800
   107  S          0.86839800       0.17265400       0.63270800
   108  S          0.13160200       0.67265400       0.86729200
