data_DEHKUA04
_symmetry_space_group_name_H-M    'P1'
_symmetry_Int_Tables_number       1
loop_
_symmetry_equiv_pos_site_id
_symmetry_equiv_pos_as_xyz
1 x,y,z
_cell_length_a                   5.10782
_cell_length_b                   9.89213
_cell_length_c                   22.75651
_cell_angle_alpha                80.5341
_cell_angle_beta                 88.4801
_cell_angle_gamma                76.4523
loop_
_atom_site_label
_atom_site_type_symbol
_atom_site_fract_x
_atom_site_fract_y
_atom_site_fract_z
     1  O          0.27284000       0.14612000       0.94652900
     2  O          0.72716000       0.85388000       0.05347100
     3  O          0.41284000       0.22613000       0.31758110
     4  O          0.58716000       0.77387000       0.68241890
     5  O          0.81125000       0.94777000       0.36083120
     6  O          0.18875000       0.05223000       0.63916880
     7  N          0.31035000       0.16463000       0.20638140
     8  N          0.68965000       0.83537000       0.79361860
     9  N          0.33606000       0.16243000       0.84373860
    10  N          0.66394000       0.83757000       0.15626140
    11  N          0.11145000       0.08983000       0.35462130
    12  N          0.88855000       0.91017000       0.64537870
    13  H          0.11790000       0.09760000       0.39160000
    14  H          0.88210000       0.90240000       0.60840000
    15  N          0.19555000       0.11643000       0.25809130
    16  N          0.80445000       0.88357000       0.74190870
    17  C          0.25847000       0.15294000       0.31054170
    18  C          0.74153000       0.84706000       0.68945830
    19  O          0.15045000       0.10253000       0.84228880
    20  O          0.84955000       0.89747000       0.15771120
    21  O          0.46535000       0.19753000       0.79945880
    22  O          0.53465000       0.80247000       0.20054120
    23  C          0.40836000       0.19384000       0.89841840
    24  C          0.59164000       0.80616000       0.10158160
    25  C          0.37466000       0.18904000      -0.00574160
    26  C          0.62534000       0.81096000       0.00574160
    27  C          0.22906000       0.13284000       0.15816160
    28  C          0.77094000       0.86716000       0.84183840
    29  H          0.09710000       0.08160000       0.15990000
    30  H          0.90290000       0.91840000       0.84010000
    31  C          0.26597000       0.14844000       0.05079170
    32  C          0.73403000       0.85156000       0.94920830
    33  H          0.13190000       0.09850000       0.05220000
    34  H          0.86810000       0.90150000       0.94780000
    35  C         -0.00057000       0.03064000       0.26600160
    36  C          0.00057000       0.96936000       0.73399840
    37  H          0.06980000       0.94010000       0.25340000
    38  H          0.93020000       0.05990000       0.74660000
    39  H          0.83410000       0.07780000       0.24410000
    40  H          0.16590000       0.92220000       0.75590000
    41  C          0.58717000       0.26314000       0.91229830
    42  C          0.41283000       0.73686000       0.08770170
    43  H          0.70280000       0.30340000       0.88660000
    44  H          0.29720000       0.69660000       0.11340000
    45  C          0.95493000       0.01394000       0.33265170
    46  C          0.04507000       0.98606000       0.66734830
    47  C          0.34336000       0.17704000       0.10187160
    48  C          0.65664000       0.82296000       0.89812840
    49  H          0.47620000       0.22740000       0.10110000
    50  H          0.52380000       0.77260000       0.89890000
    51  C          0.56317000       0.26194000       0.97403830
    52  C          0.43683000       0.73806000       0.02596170
    53  H          0.65920000       0.30370000      -0.00300000
    54  H          0.34080000       0.69630000       0.00300000
    55  O          0.04184000       0.54343000       0.19916100
    56  O          0.95816000       0.45657000       0.80083900
    57  O          0.74495000       0.39783000       0.09771120
    58  O          0.25505000       0.60217000       0.90228880
    59  N          0.89164000       0.46453000       0.11713140
    60  N          0.10836000       0.53547000       0.88286860
    61  N          0.50275000       0.75173000       0.56208140
    62  N          0.49725000       0.24827000       0.43791860
    63  H          0.51290000       0.75750000       0.59920000
    64  H          0.48710000       0.24250000       0.40080000
    65  N          0.38585000       0.69033000       0.47980140
    66  N          0.61415000       0.30967000       0.52019860
    67  O          0.04595000       0.52333000       0.08578120
    68  O          0.95405000       0.47667000       0.91421880
    69  C          0.87664000       0.47184000       0.17863160
    70  C          0.12336000       0.52816000       0.82136840
    71  O          0.19995000       0.61043000       0.56928120
    72  O          0.80005000       0.38957000       0.43071880
    73  N          0.24676000       0.63183000       0.44497140
    74  N          0.75324000       0.36817000       0.55502860
    75  O          0.79235000       0.89153000       0.52656120
    76  O          0.20765000       0.10847000       0.47343880
    77  C          0.28557000       0.65104000       0.38840170
    78  C          0.71443000       0.34896000       0.61159830
    79  H          0.40540000       0.70370000       0.37160000
    80  H          0.59460000       0.29630000       0.62840000
    81  C         -0.00196000       0.53194000       0.25957170
    82  C          0.00196000       0.46806000       0.74042830
    83  C          0.15036000       0.59924000       0.29295160
    84  C          0.84964000       0.40076000       0.70704840
    85  H          0.26200000       0.65240000       0.27250000
    86  H          0.73800000       0.34760000       0.72750000
    87  C          0.73394000       0.41514000       0.22234170
    88  C          0.26606000       0.58486000       0.77765830
    89  H          0.60950000       0.36180000       0.21850000
    90  H          0.39050000       0.63820000       0.78150000
    91  C          0.57667000       0.77594000       0.46138160
    92  C          0.42333000       0.22406000       0.53861840
    93  H          0.49670000       0.85830000       0.43270000
    94  H          0.50330000       0.14170000       0.56730000
    95  H          0.73610000       0.72240000       0.44440000
    96  H          0.26390000       0.27760000       0.55560000
    97  C          0.13737000       0.58834000       0.35227170
    98  C          0.86263000       0.41166000       0.64772830
    99  H          0.02250000       0.53560000       0.37170000
   100  H          0.97750000       0.46440000       0.62830000
   101  C          0.34387000       0.67544000       0.54008190
   102  C          0.65613000       0.32456000       0.45991810
   103  C          0.81173000       0.45304000       0.27519170
   104  C          0.18827000       0.54696000       0.72480830
   105  H          0.74880000       0.42910000       0.31330000
   106  H          0.25120000       0.57090000       0.68670000
   107  C          0.64027000       0.81614000       0.51903170
   108  C          0.35973000       0.18386000       0.48096830
