data_DEHKUA02
_symmetry_space_group_name_H-M    'P1'
_symmetry_Int_Tables_number       1
loop_
_symmetry_equiv_pos_site_id
_symmetry_equiv_pos_as_xyz
1 x,y,z
_cell_length_a                   20.840315
_cell_length_b                   4.67783
_cell_length_c                   11.44447
_cell_angle_alpha                90.0
_cell_angle_beta                 93.4793
_cell_angle_gamma                90.0
loop_
_atom_site_label
_atom_site_type_symbol
_atom_site_fract_x
_atom_site_fract_y
_atom_site_fract_z
     1  O          0.35569100       0.20354000       0.19865850
     2  O          0.64430900       0.70354000       0.30134150
     3  O          0.64430900       0.79646000       0.80134150
     4  O          0.35569100       0.29646000       0.69865850
     5  N          0.18617890       0.81575000       0.38531810
     6  N          0.81382110       0.31575000       0.11468190
     7  N          0.81382110       0.18425000       0.61468190
     8  N          0.18617890       0.68425000       0.88531810
     9  O          0.02575900       0.55415000       0.34791840
    10  O          0.97424100       0.05415000       0.15208160
    11  O          0.97424100       0.44585000       0.65208160
    12  O          0.02575900       0.94585000       0.84791840
    13  O          0.11613900       0.85975000       0.58686830
    14  O          0.88386100       0.35975000       0.91313170
    15  O          0.88386100       0.14025000       0.41313170
    16  O          0.11613900       0.64025000       0.08686830
    17  O          0.47965900       0.72675000       0.16021830
    18  O          0.52034100       0.22675000       0.33978170
    19  O          0.52034100       0.27325000       0.83978170
    20  O          0.47965900       0.77325000       0.66021830
    21  N          0.43562880       0.84575000       0.20898000
    22  N          0.56437120       0.34575000       0.29102000
    23  N          0.56437120       0.15425000       0.79102000
    24  N          0.43562880       0.65425000       0.70898000
    25  N          0.13836880       0.01125000       0.40029820
    26  N          0.86163120       0.51125000       0.09970180
    27  N          0.86163120      -0.01125000       0.59970180
    28  N          0.13836880       0.48875000       0.90029820
    29  N          0.05932880       0.22255000       0.48708810
    30  N          0.94067120       0.72255000       0.01291190
    31  N          0.94067120       0.77745000       0.51291190
    32  N          0.05932880       0.27745000       0.98708810
    33  H          0.03540000       0.27530000       0.56290000
    34  H          0.96460000       0.77530000       0.93710000
    35  H          0.96460000       0.72470000       0.43710000
    36  H          0.03540000       0.22470000       0.06290000
    37  O          0.41950900       0.78995000       0.30772840
    38  O          0.58049100       0.28995000       0.19227160
    39  O          0.58049100       0.21005000       0.69227160
    40  O          0.41950900       0.71005000       0.80772840
    41  C          0.10657850       0.00937000       0.50147000
    42  C          0.89342150       0.50937000      -0.00147000
    43  C          0.89342150      -0.00937000       0.49853000
    44  C          0.10657850       0.49063000       0.00147000
    45  C          0.25897870       0.60686000       0.25908000
    46  C          0.74102130       0.10686000       0.24092000
    47  C          0.74102130       0.39314000       0.74092000
    48  C          0.25897870       0.89314000       0.75908000
    49  H          0.27700000       0.49350000       0.31920000
    50  H          0.72300000      -0.00650000       0.18080000
    51  H          0.72300000       0.50650000       0.68080000
    52  H          0.27700000       0.00650000       0.81920000
    53  C          0.20953860       0.81007000       0.28348000
    54  C          0.79046140       0.31007000       0.21652000
    55  C          0.79046140       0.18993000       0.71652000
    56  C          0.20953860       0.68993000       0.78348000
    57  H          0.19440000       0.93730000       0.22570000
    58  H          0.80560000       0.43730000       0.27430000
    59  H          0.80560000       0.06270000       0.77430000
    60  H          0.19440000       0.56270000       0.72570000
    61  C          0.27913860       0.57926000       0.15108000
    62  C          0.72086140       0.07926000       0.34892000
    63  C          0.72086140       0.42074000       0.84892000
    64  C          0.27913860       0.92074000       0.65108000
    65  H          0.25970000       0.69580000       0.09330000
    66  H          0.74030000       0.19580000       0.40670000
    67  H          0.74030000       0.30420000       0.90670000
    68  H          0.25970000       0.80420000       0.59330000
    69  C          0.10716870       0.19447000       0.31098000
    70  C          0.89283130       0.69447000       0.18902000
    71  C          0.89283130       0.80553000       0.68902000
    72  C          0.10716870       0.30553000       0.81098000
    73  H          0.08630000       0.08320000       0.24810000
    74  H          0.91370000       0.58320000       0.25190000
    75  H          0.91370000       0.91680000       0.75190000
    76  H          0.08630000       0.41680000       0.74810000
    77  H          0.13750000       0.32580000       0.27880000
    78  H          0.86250000       0.82580000       0.22120000
    79  H          0.86250000       0.67420000       0.72120000
    80  H          0.13750000       0.17420000       0.77880000
    81  C          0.40154860       0.06126000       0.14168000
    82  C          0.59845140       0.56126000       0.35832000
    83  C          0.59845140       0.93874000       0.85832000
    84  C          0.40154860       0.43874000       0.64168000
    85  C          0.05898850       0.34937000       0.38048000
    86  C          0.94101150       0.84937000       0.11952000
    87  C          0.94101150       0.65063000       0.61952000
    88  C          0.05898850       0.15063000       0.88048000
    89  C          0.32812860       0.38557000       0.11558000
    90  C          0.67187140       0.88557000       0.38442000
    91  C          0.67187140       0.61443000       0.88442000
    92  C          0.32812860       0.11443000       0.61558000
    93  C          0.40439850       0.13997000       0.03048000
    94  C          0.59560150       0.63997000       0.46952000
    95  C          0.59560150       0.86003000       0.96952000
    96  C          0.40439850       0.36003000       0.53048000
    97  H          0.43190000       0.07040000       0.97610000
    98  H          0.56810000       0.57040000       0.52390000
    99  H          0.56810000       0.92960000       0.02390000
   100  H          0.43190000       0.42960000       0.47610000
   101  C          0.35683850       0.35097000       0.01318000
   102  C          0.64316150       0.85097000       0.48682000
   103  C          0.64316150       0.64903000       0.98682000
   104  C          0.35683850       0.14903000       0.51318000
   105  H          0.34680000       0.44950000       0.94390000
   106  H          0.65320000       0.94950000       0.55610000
   107  H          0.65320000       0.55050000       0.05610000
   108  H          0.34680000       0.05050000       0.44390000
