data_DEHKUA03
_symmetry_space_group_name_H-M    'P1'
_symmetry_Int_Tables_number       1
loop_
_symmetry_equiv_pos_site_id
_symmetry_equiv_pos_as_xyz
1 x,y,z
_cell_length_a                   11.56843
_cell_length_b                   11.47053
_cell_length_c                   8.39622
_cell_angle_alpha                90.0
_cell_angle_beta                 106.05701
_cell_angle_gamma                90.0
loop_
_atom_site_label
_atom_site_type_symbol
_atom_site_fract_x
_atom_site_fract_y
_atom_site_fract_z
     1  O          0.43566890       0.43823110       0.82404860
     2  O          0.56433110       0.93823110       0.67595140
     3  O          0.56433110       0.56176890       0.17595140
     4  O          0.43566890       0.06176890       0.32404860
     5  O          0.98340900       0.09754100       0.20204870
     6  O          0.01659100       0.59754100       0.29795130
     7  O          0.01659100       0.90245900       0.79795130
     8  O          0.98340900       0.40245900       0.70204870
     9  N          0.32492880       0.23156120       0.67768840
    10  N          0.67507120       0.73156120       0.82231160
    11  N          0.67507120       0.76843880       0.32231160
    12  N          0.32492880       0.26843880       0.17768840
    13  N          0.41714880       0.23676120       0.81898850
    14  N          0.58285120       0.73676120       0.68101150
    15  N          0.58285120       0.76323880       0.18101150
    16  N          0.41714880       0.26323880       0.31898850
    17  O          0.64347890       0.15162110       0.16798140
    18  O          0.35652110       0.65162110       0.33201860
    19  O          0.35652110       0.84837890       0.83201860
    20  O          0.64347890       0.34837890       0.66798140
    21  N          0.55703880       0.31656120       0.02360160
    22  N          0.44296120       0.81656120       0.47639840
    23  N          0.44296120       0.68343880       0.97639840
    24  N          0.55703880       0.18343880       0.52360160
    25  H          0.60080000       0.36870000       0.08570000
    26  H          0.39920000       0.86870000       0.41430000
    27  H          0.39920000       0.63130000       0.91430000
    28  H          0.60080000       0.13130000       0.58570000
    29  C          0.46584850       0.34291150       0.88150810
    30  C          0.53415150       0.84291150       0.61849190
    31  C          0.53415150       0.65708850       0.11849190
    32  C          0.46584850       0.15708850       0.38150810
    33  C          0.88925850       0.05820160       0.07868000
    34  C          0.11074150       0.55820160       0.42132000
    35  C          0.11074150       0.94179840       0.92132000
    36  C          0.88925850       0.44179840       0.57868000
    37  C          0.03322850      -0.00130150       0.28718000
    38  C          0.96677150       0.49869850       0.21282000
    39  C          0.96677150       0.00130150       0.71282000
    40  C          0.03322850       0.50130150       0.78718000
    41  C          0.28434850       0.12859150       0.62829810
    42  C          0.71565150       0.62859150       0.87170190
    43  C          0.71565150       0.87140850       0.37170190
    44  C          0.28434850       0.37140850       0.12829810
    45  H          0.31890000       0.06280000       0.68740000
    46  H          0.68110000       0.56280000       0.81260000
    47  H          0.68110000       0.93720000       0.31260000
    48  H          0.31890000       0.43720000       0.18740000
    49  N          0.82521860       0.14343140       0.96642810
    50  N          0.17478140       0.64343140       0.53357190
    51  N          0.17478140       0.85656860       0.03357190
    52  N          0.82521860       0.35656860       0.46642810
    53  O          0.73900880       0.10791120       0.85567840
    54  O          0.26099120       0.60791120       0.64432160
    55  O          0.26099120       0.89208880       0.14432160
    56  O          0.73900880       0.39208880       0.35567840
    57  O          0.86004870       0.24525120      -0.01538180
    58  O          0.13995130       0.74525120       0.51538180
    59  O          0.13995130       0.75474880       0.01538180
    60  O          0.86004870       0.25474880       0.48461820
    61  C          0.47450850       0.13934150       0.92112810
    62  C          0.52549150       0.63934150       0.57887190
    63  C          0.52549150       0.86065850       0.07887190
    64  C          0.47450850       0.36065850       0.42112810
    65  H          0.50950000       0.08530000       0.85870000
    66  H          0.49050000       0.58530000       0.64130000
    67  H          0.49050000       0.91470000       0.14130000
    68  H          0.50950000       0.41470000       0.35870000
    69  H          0.41800000       0.09790000       0.96700000
    70  H          0.58200000       0.59790000       0.53300000
    71  H          0.58200000       0.90210000       0.03300000
    72  H          0.41800000       0.40210000       0.46700000
    73  C          0.57042850       0.19925160       0.05523190
    74  C          0.42957150       0.69925160       0.44476810
    75  C          0.42957150       0.80074840       0.94476810
    76  C          0.57042850       0.30074840       0.55523190
    77  C          0.13516850       0.01470160       0.42845810
    78  C          0.86483150       0.51470160       0.07154190
    79  C          0.86483150       0.98529840       0.57154190
    80  C          0.13516850       0.48529840       0.92845810
    81  H          0.16850000       0.94850000       0.48740000
    82  H          0.83150000       0.44850000       0.01260000
    83  H          0.83150000       0.05150000       0.51260000
    84  H          0.16850000       0.55150000      -0.01260000
    85  C          0.18598850       0.11694150       0.48198000
    86  C          0.81401150       0.61694150       0.01802000
    87  C          0.81401150       0.88305850       0.51802000
    88  C          0.18598850       0.38305850       0.98198000
    89  H          0.15620000       0.18370000       0.42170000
    90  H          0.84380000       0.68370000       0.07830000
    91  H          0.84380000       0.81630000       0.57830000
    92  H          0.15620000       0.31630000       0.92170000
    93  C          0.96989840       0.90301840       0.21608000
    94  C          0.03010160       0.40301840       0.28392000
    95  C          0.03010160       0.09698160       0.78392000
    96  C          0.96989840       0.59698160       0.71608000
    97  H         -0.01450000       0.82620000       0.25080000
    98  H          0.01450000       0.32620000       0.24920000
    99  H          0.01450000       0.17380000       0.74920000
   100  H         -0.01450000       0.67380000       0.75080000
   101  C          0.87634850       0.94174840       0.08008000
   102  C          0.12365150       0.44174840       0.41992000
   103  C          0.12365150       0.05825160       0.91992000
   104  C          0.87634850       0.55825160       0.58008000
   105  H          0.81840000       0.89660000       0.00730000
   106  H          0.18160000       0.39660000       0.49270000
   107  H          0.18160000       0.10340000      -0.00730000
   108  H          0.81840000       0.60340000       0.50730000
