data_DEKDIG03
_symmetry_space_group_name_H-M    'P1'
_symmetry_Int_Tables_number       1
loop_
_symmetry_equiv_pos_site_id
_symmetry_equiv_pos_as_xyz
1 x,y,z
_cell_length_a                   7.8503
_cell_length_b                   7.904016
_cell_length_c                   19.5535
_cell_angle_alpha                90.0
_cell_angle_beta                 90.0
_cell_angle_gamma                90.0
loop_
_atom_site_label
_atom_site_type_symbol
_atom_site_fract_x
_atom_site_fract_y
_atom_site_fract_z
     1  S          0.33054000       0.62773000       0.49261130
     2  S          0.66946000       0.37227000       0.99261130
     3  S          0.83054000       0.87227000       0.49261130
     4  S          0.16946000       0.12773000       0.99261130
     5  N          0.08661100       0.53821000       0.61705000
     6  N          0.91338900       0.46179000       0.11705000
     7  N          0.58661100       0.96179000       0.61705000
     8  N          0.41338900       0.03821000       0.11705000
     9  O          0.01209000       0.60961200       0.66344000
    10  O         -0.01209000       0.39038800       0.16344000
    11  O          0.51209000       0.89038800       0.66344000
    12  O          0.48791000       0.10961200       0.16344000
    13  O          0.02059000       0.49121200       0.56494000
    14  O          0.97941000       0.50878800       0.06494000
    15  O          0.52059000       0.00878800       0.56494000
    16  O          0.47941000      -0.00878800       0.06494000
    17  C          0.27081000       0.51051100       0.62715000
    18  C          0.72919000       0.48948900       0.12715000
    19  C          0.77081000      -0.01051100       0.62715000
    20  C          0.22919000       0.01051100       0.12715000
    21  C          0.38541100       0.54011100       0.57354000
    22  C          0.61458900       0.45988900       0.07354000
    23  C          0.88541100       0.95988900       0.57354000
    24  C          0.11458900       0.04011100       0.07354000
    25  C          0.60921400       0.46121400       0.65226000
    26  C          0.39078600       0.53878600       0.15226000
    27  C          0.10921400       0.03878600       0.65226000
    28  C          0.89078600       0.96121400       0.15226000
    29  H          0.72448000       0.44562300       0.66117700
    30  H          0.27552000       0.55437700       0.16117700
    31  H          0.22448000       0.05437700       0.66117700
    32  H          0.77552000       0.94562300       0.16117700
    33  O          0.22271400       0.74091100       0.37354000
    34  O          0.77728600       0.25908900       0.87354000
    35  O          0.72271400       0.75908900       0.37354000
    36  O          0.27728600       0.24091100       0.87354000
    37  C          0.28181100       0.44469000       0.44474000
    38  C          0.71818900       0.55531000       0.94474000
    39  C          0.78181100       0.05531000       0.44474000
    40  C          0.21818900       0.94469000       0.94474000
    41  C          0.31891100       0.28021000       0.46914000
    42  C          0.68108900       0.71979000       0.96914000
    43  C          0.81891100       0.21979000       0.46914000
    44  C          0.18108900       0.78021000       0.96914000
    45  H          0.36892800       0.26699400       0.51190400
    46  H          0.63107200       0.73300600       0.01190400
    47  H          0.86892800       0.23300600       0.51190400
    48  H          0.13107200       0.76699400       0.01190400
    49  N          0.16951300       0.61381100       0.34894000
    50  N          0.83048700       0.38618900       0.84894000
    51  N          0.66951300       0.88618900       0.34894000
    52  N          0.33048700       0.11381100       0.84894000
    53  C          0.28261200       0.14181100       0.43104000
    54  C          0.71738800       0.85818900       0.93104000
    55  C          0.78261200       0.35818900       0.43104000
    56  C          0.21738800       0.64181100       0.93104000
    57  H          0.30559500       0.03532600       0.44893600
    58  H          0.69440500       0.96467400       0.94893600
    59  H          0.80559500       0.46467400       0.44893600
    60  H          0.19440500       0.53532600       0.94893600
    61  C          0.32101200       0.46171200       0.69025000
    62  C          0.67898800       0.53828800       0.19025000
    63  C          0.82101200       0.03828800       0.69025000
    64  C          0.17898800       0.96171200       0.19025000
    65  H          0.24165300       0.44881100       0.72510500
    66  H          0.75834700       0.55118900       0.22510500
    67  H          0.74165300       0.05118900       0.72510500
    68  H          0.25834700       0.94881100       0.22510500
    69  C          0.55791200       0.51401200       0.58935000
    70  C          0.44208800       0.48598800       0.08935000
    71  C          0.05791200      -0.01401200       0.58935000
    72  C          0.94208800       0.01401200       0.08935000
    73  H          0.63949300       0.53332300       0.55572200
    74  H          0.36050700       0.46667700       0.05572200
    75  H          0.13949300       0.96667700       0.55572200
    76  H          0.86050700       0.03332300       0.05572200
    77  C          0.17711200       0.30911200       0.34174000
    78  C          0.82288800       0.69088800       0.84174000
    79  C          0.67711200       0.19088800       0.34174000
    80  C          0.32288800       0.80911200       0.84174000
    81  H          0.12832800       0.31985100       0.29859300
    82  H          0.87167200       0.68014900       0.79859300
    83  H          0.62832800       0.18014900       0.29859300
    84  H          0.37167200       0.81985100       0.79859300
    85  C          0.21331300       0.15311100       0.36694000
    86  C          0.78668700       0.84688900       0.86694000
    87  C          0.71331300       0.34688900       0.36694000
    88  C          0.28668700       0.65311100       0.86694000
    89  H          0.19143900       0.05637200       0.34130900
    90  H          0.80856100       0.94362800       0.84130900
    91  H          0.69143900       0.44362800       0.34130900
    92  H          0.30856100       0.55637200       0.84130900
    93  O          0.08611800       0.61691100       0.29695000
    94  O          0.91388200       0.38308900       0.79695000
    95  O          0.58611800       0.88308900       0.29695000
    96  O          0.41388200       0.11691100       0.79695000
    97  C          0.21261100       0.45221100       0.37994000
    98  C          0.78738900       0.54778900       0.87994000
    99  C          0.71261100       0.04778900       0.37994000
   100  C          0.28738900       0.95221100       0.87994000
   101  C          0.49141300       0.43121300       0.70216000
   102  C          0.50858700       0.56878700       0.20216000
   103  C         -0.00858700       0.06878700       0.70216000
   104  C          0.00858700       0.93121300       0.20216000
   105  H          0.52623500       0.38987900       0.74432900
   106  H          0.47376500       0.61012100       0.24432900
   107  H          0.02623500       0.11012100       0.74432900
   108  H          0.97376500       0.88987900       0.24432900
