data_DEKDIG
_symmetry_space_group_name_H-M    'P1'
_symmetry_Int_Tables_number       1
loop_
_symmetry_equiv_pos_site_id
_symmetry_equiv_pos_as_xyz
1 x,y,z
_cell_length_a                   7.6772
_cell_length_b                   7.8401
_cell_length_c                   11.6792
_cell_angle_alpha                102.781
_cell_angle_beta                 88.952
_cell_angle_gamma                118.943
loop_
_atom_site_label
_atom_site_type_symbol
_atom_site_fract_x
_atom_site_fract_y
_atom_site_fract_z
     1  S          0.64705900       0.41301700       0.22283500
     2  S          0.35294100       0.58698300       0.77716500
     3  O          0.90183000       0.80202000       0.30592000
     4  O          0.09817000       0.19798000       0.69408000
     5  O          0.13602000       0.91592000       0.44692000
     6  O          0.86398000       0.08408000       0.55308000
     7  O          0.30162000       0.30652000       0.06681000
     8  O          0.69838000       0.69348000       0.93319000
     9  O          0.03602000       0.10242000       0.13242000
    10  O          0.96398000       0.89758000       0.86758000
    11  N         -0.02907000       0.79102000       0.39582000
    12  N          0.02907000       0.20898000       0.60418000
    13  N          0.20762000       0.16122000       0.10811000
    14  N          0.79238000       0.83878000       0.89189000
    15  C          0.69122000       0.44482000       0.37612000
    16  C          0.30878000       0.55518000       0.62388000
    17  C          0.84463000       0.62222000       0.44742000
    18  C          0.15537000       0.37778000       0.55258000
    19  C          0.88253000       0.64913000       0.56652000
    20  C          0.11747000       0.35087000       0.43348000
    21  C          0.76513000       0.49863000       0.61972000
    22  C          0.23487000       0.50137000       0.38028000
    23  C          0.60883000       0.32243000       0.55252000
    24  C          0.39117000       0.67757000       0.44748000
    25  C          0.57323000       0.29593000       0.43402000
    26  C          0.42677000       0.70407000       0.56598000
    27  C          0.50353000       0.14703000       0.17562000
    28  C          0.49647000       0.85297000       0.82438000
    29  C          0.30553000       0.04792000       0.12772000
    30  C          0.69447000       0.95208000       0.87228000
    31  C          0.19333000       0.84187000       0.09442000
    32  C          0.80667000       0.15813000       0.90558000
    33  C          0.27923000       0.72867000       0.10642000
    34  C          0.72077000       0.27133000       0.89358000
    35  C          0.47653000       0.82167000       0.15192000
    36  C          0.52347000       0.17833000       0.84808000
    37  C          0.58563000       0.02723000       0.18642000
    38  C          0.41437000       0.97277000       0.81358000
    39  H         -0.01000000       0.77200000       0.61200000
    40  H          0.01000000       0.22800000       0.38800000
    41  H          0.79000000       0.51500000       0.70200000
    42  H          0.21000000       0.48500000       0.29800000
    43  H          0.52500000       0.21800000       0.58900000
    44  H          0.47500000       0.78200000       0.41100000
    45  H          0.46500000       0.17300000       0.39000000
    46  H          0.53500000       0.82700000       0.61000000
    47  H          0.05700000       0.78900000       0.06300000
    48  H          0.94300000       0.21100000       0.93700000
    49  H          0.20300000       0.58600000       0.08300000
    50  H          0.79700000       0.41400000       0.91700000
    51  H          0.53700000       0.74300000       0.15900000
    52  H          0.46300000       0.25700000       0.84100000
    53  H          0.72100000       0.08900000       0.21900000
    54  H          0.27900000       0.91100000       0.78100000
