data_DEKDIG02
_symmetry_space_group_name_H-M    'P1'
_symmetry_Int_Tables_number       1
loop_
_symmetry_equiv_pos_site_id
_symmetry_equiv_pos_as_xyz
1 x,y,z
_cell_length_a                   12.9352
_cell_length_b                   7.778912
_cell_length_c                   23.8934
_cell_angle_alpha                90.0
_cell_angle_beta                 98.2073
_cell_angle_gamma                90.0
loop_
_atom_site_label
_atom_site_type_symbol
_atom_site_fract_x
_atom_site_fract_y
_atom_site_fract_z
     1  S          0.62967400       0.76557800       0.35935200
     2  S          0.37032600       0.76557800       0.14064800
     3  S          0.12967400       0.26557800       0.35935200
     4  S          0.87032600       0.26557800       0.14064800
     5  S          0.37032600       0.23442200       0.64064800
     6  S          0.62967400       0.23442200       0.85935200
     7  S          0.87032600       0.73442200       0.64064800
     8  S          0.12967400       0.73442200       0.85935200
     9  O          0.40173130       0.85242000       0.34970700
    10  O          0.59826870       0.85242000       0.15029300
    11  O          0.90173130       0.35242000       0.34970700
    12  O          0.09826870       0.35242000       0.15029300
    13  O          0.59826870       0.14758000       0.65029300
    14  O          0.40173130       0.14758000       0.84970700
    15  O          0.09826870       0.64758000       0.65029300
    16  O          0.90173130       0.64758000       0.84970700
    17  O          0.74884140       0.03193000       0.38697900
    18  O          0.25115860       0.03193000       0.11302100
    19  O          0.24884140       0.53193000       0.38697900
    20  O          0.75115860       0.53193000       0.11302100
    21  O          0.25115860       0.96807000       0.61302100
    22  O          0.74884140       0.96807000       0.88697900
    23  O          0.75115860       0.46807000       0.61302100
    24  O          0.24884140       0.46807000       0.88697900
    25  O          0.32683170       0.76053000       0.26842800
    26  O          0.67316830       0.76053000       0.23157200
    27  O          0.82683170       0.26053000       0.26842800
    28  O          0.17316830       0.26053000       0.23157200
    29  O          0.67316830       0.23947000       0.73157200
    30  O          0.32683170       0.23947000       0.76842800
    31  O          0.17316830       0.73947000       0.73157200
    32  O          0.82683170       0.73947000       0.76842800
    33  O          0.81411130       0.12322000       0.46956100
    34  O          0.18588870       0.12322000       0.03043900
    35  O          0.31411130       0.62322000       0.46956100
    36  O          0.68588870       0.62322000       0.03043900
    37  O          0.18588870       0.87678000       0.53043900
    38  O          0.81411130       0.87678000       0.96956100
    39  O          0.68588870       0.37678000       0.53043900
    40  O          0.31411130       0.37678000       0.96956100
    41  N          0.38812140       0.74542000       0.31194800
    42  N          0.61187860       0.74542000       0.18805200
    43  N          0.88812140       0.24542000       0.31194800
    44  N          0.11187860       0.24542000       0.18805200
    45  N          0.61187860       0.25458000       0.68805200
    46  N          0.38812140       0.25458000       0.81194800
    47  N          0.11187860       0.75458000       0.68805200
    48  N          0.88812140       0.75458000       0.81194800
    49  N          0.75170140       0.03482000       0.43828100
    50  N          0.24829860       0.03482000       0.06171900
    51  N          0.25170140       0.53482000       0.43828100
    52  N          0.74829860       0.53482000       0.06171900
    53  N          0.24829860       0.96518000       0.56171900
    54  N          0.75170140       0.96518000       0.93828100
    55  N          0.74829860       0.46518000       0.56171900
    56  N          0.25170140       0.46518000       0.93828100
    57  C          0.55138170       0.58033000       0.34443800
    58  C          0.44861830       0.58033000       0.15556200
    59  C          0.05138170       0.08033000       0.34443800
    60  C          0.94861830       0.08033000       0.15556200
    61  C          0.44861830       0.41967000       0.65556200
    62  C          0.55138170       0.41967000       0.84443800
    63  C          0.94861830       0.91967000       0.65556200
    64  C          0.05138170       0.91967000       0.84443800
    65  C          0.44659170       0.58313000       0.31957800
    66  C          0.55340830       0.58313000       0.18042200
    67  C          0.94659170       0.08313000       0.31957800
    68  C          0.05340830       0.08313000       0.18042200
    69  C          0.55340830       0.41687000       0.68042200
    70  C          0.44659170       0.41687000       0.81957800
    71  C          0.05340830       0.91687000       0.68042200
    72  C          0.94659170       0.91687000       0.81957800
    73  C          0.39252000       0.43503000       0.30181900
    74  C          0.60748000       0.43503000       0.19818100
    75  C          0.89252000       0.93503000       0.30181900
    76  C          0.10748000       0.93503000       0.19818100
    77  C          0.60748000       0.56497000       0.69818100
    78  C          0.39252000       0.56497000       0.80181900
    79  C          0.10748000       0.06497000       0.69818100
    80  C          0.89252000       0.06497000       0.80181900
    81  H          0.32220700       0.44186900       0.28391400
    82  H          0.67779300       0.44186900       0.21608600
    83  H          0.82220700       0.94186900       0.28391400
    84  H          0.17779300       0.94186900       0.21608600
    85  H          0.67779300       0.55813100       0.71608600
    86  H          0.32220700       0.55813100       0.78391400
    87  H          0.17779300       0.05813100       0.71608600
    88  H          0.82220700       0.05813100       0.78391400
    89  C          0.44073000       0.27773000       0.31007110
    90  C          0.55927000       0.27773000       0.18992890
    91  C          0.94073000       0.77773000       0.31007110
    92  C          0.05927000       0.77773000       0.18992890
    93  C          0.55927000       0.72227000       0.68992890
    94  C          0.44073000       0.72227000       0.81007110
    95  C          0.05927000       0.22227000       0.68992890
    96  C          0.94073000       0.22227000       0.81007110
    97  H          0.40300500       0.17535500       0.29926800
    98  H          0.59699500       0.17535500       0.20073200
    99  H          0.90300500       0.67535500       0.29926800
   100  H          0.09699500       0.67535500       0.20073200
   101  H          0.59699500       0.82464500       0.70073200
   102  H          0.40300500       0.82464500       0.79926800
   103  H          0.09699500       0.32464500       0.70073200
   104  H          0.90300500       0.32464500       0.79926800
   105  C          0.54422000       0.26893000       0.33415100
   106  C          0.45578000       0.26893000       0.16584900
   107  C          0.04422000       0.76893000       0.33415100
   108  C          0.95578000       0.76893000       0.16584900
   109  C          0.45578000       0.73107000       0.66584900
   110  C          0.54422000       0.73107000       0.83415100
   111  C          0.95578000       0.23107000       0.66584900
   112  C          0.04422000       0.23107000       0.83415100
   113  H          0.57718400       0.15997100       0.33995400
   114  H          0.42281600       0.15997100       0.16004600
   115  H          0.07718400       0.65997100       0.33995400
   116  H          0.92281600       0.65997100       0.16004600
   117  H          0.42281600       0.84002900       0.66004600
   118  H          0.57718400       0.84002900       0.83995400
   119  H          0.92281600       0.34002900       0.66004600
   120  H          0.07718400       0.34002900       0.83995400
   121  C          0.60058180       0.41653000       0.34992800
   122  C          0.39941820       0.41653000       0.15007200
   123  C          0.10058180       0.91653000       0.34992800
   124  C          0.89941820       0.91653000       0.15007200
   125  C          0.39941820       0.58347000       0.65007200
   126  C          0.60058180       0.58347000       0.84992800
   127  C          0.89941820       0.08347000       0.65007200
   128  C          0.10058180       0.08347000       0.84992800
   129  H          0.67267600       0.40837300       0.36451600
   130  H          0.32732400       0.40837300       0.13548400
   131  H          0.17267600       0.90837300       0.36451600
   132  H          0.82732400       0.90837300       0.13548400
   133  H          0.32732400       0.59162700       0.63548400
   134  H          0.67267600       0.59162700       0.86451600
   135  H          0.82732400       0.09162700       0.63548400
   136  H          0.17267600       0.09162700       0.86451600
   137  C          0.61597140       0.80533000       0.43052900
   138  C          0.38402860       0.80533000       0.06947100
   139  C          0.11597140       0.30533000       0.43052900
   140  C          0.88402860       0.30533000       0.06947100
   141  C          0.38402860       0.19467000       0.56947100
   142  C          0.61597140       0.19467000       0.93052900
   143  C          0.88402860       0.69467000       0.56947100
   144  C          0.11597140       0.69467000       0.93052900
   145  C          0.67742140       0.92903000       0.46311100
   146  C          0.32257860       0.92903000       0.03688900
   147  C          0.17742140       0.42903000       0.46311100
   148  C          0.82257860       0.42903000       0.03688900
   149  C          0.32257860       0.07097000       0.53688900
   150  C          0.67742140       0.07097000       0.96311100
   151  C          0.82257860       0.57097000       0.53688900
   152  C          0.17742140       0.57097000       0.96311100
   153  C          0.67079160       0.95813000       0.51974100
   154  C          0.32920840       0.95813000       0.98025900
   155  C          0.17079160       0.45813000       0.51974100
   156  C          0.82920840       0.45813000       0.98025900
   157  C          0.32920840       0.04187000       0.48025900
   158  C          0.67079160       0.04187000       0.01974100
   159  C          0.82920840       0.54187000       0.48025900
   160  C          0.17079160       0.54187000       0.01974100
   161  H          0.71399000       0.04210200       0.54029700
   162  H          0.28601000       0.04210200       0.95970300
   163  H          0.21399000       0.54210200       0.54029700
   164  H          0.78601000       0.54210200       0.95970300
   165  H          0.28601000       0.95789800       0.45970300
   166  H          0.71399000       0.95789800       0.04029700
   167  H          0.78601000       0.45789800       0.45970300
   168  H          0.21399000       0.45789800       0.04029700
   169  C          0.60120170       0.86443000       0.54604900
   170  C          0.39879830       0.86443000       0.95395100
   171  C          0.10120170       0.36443000       0.54604900
   172  C          0.89879830       0.36443000       0.95395100
   173  C          0.39879830       0.13557000       0.45395100
   174  C          0.60120170       0.13557000       0.04604900
   175  C          0.89879830       0.63557000       0.45395100
   176  C          0.10120170       0.63557000       0.04604900
   177  H          0.59637500       0.88220200       0.58491500
   178  H          0.40362500       0.88220200       0.91508500
   179  H          0.09637500       0.38220200       0.58491500
   180  H          0.90362500       0.38220200       0.91508500
   181  H          0.40362500       0.11779800       0.41508500
   182  H          0.59637500       0.11779800       0.08491500
   183  H          0.90362500       0.61779800       0.41508500
   184  H          0.09637500       0.61779800       0.08491500
   185  C          0.53860160       0.74433000       0.51509900
   186  C          0.46139840       0.74433000       0.98490100
   187  C          0.03860160       0.24433000       0.51509900
   188  C          0.96139840       0.24433000       0.98490100
   189  C          0.46139840       0.25567000       0.48490100
   190  C          0.53860160       0.25567000       0.01509900
   191  C          0.96139840       0.75567000       0.48490100
   192  C          0.03860160       0.75567000       0.01509900
   193  H          0.48967400       0.68070600       0.53288300
   194  H          0.51032600       0.68070600       0.96711700
   195  H         -0.01032600       0.18070600       0.53288300
   196  H          0.01032600       0.18070600       0.96711700
   197  H          0.51032600       0.31929400       0.46711700
   198  H          0.48967400       0.31929400       0.03288300
   199  H          0.01032600       0.81929400       0.46711700
   200  H         -0.01032600       0.81929400       0.03288300
   201  C          0.54569150       0.71463000       0.45869900
   202  C          0.45430850       0.71463000       0.04130100
   203  C          0.04569150       0.21463000       0.45869900
   204  C          0.95430850       0.21463000       0.04130100
   205  C          0.45430850       0.28537000       0.54130100
   206  C          0.54569150       0.28537000       0.95869900
   207  C          0.95430850       0.78537000       0.54130100
   208  C          0.04569150       0.78537000       0.95869900
   209  H          0.50174800       0.63050700       0.43863100
   210  H          0.49825200       0.63050700       0.06136900
   211  H          0.00174800       0.13050700       0.43863100
   212  H         -0.00174800       0.13050700       0.06136900
   213  H          0.49825200       0.36949300       0.56136900
   214  H          0.50174800       0.36949300       0.93863100
   215  H         -0.00174800       0.86949300       0.56136900
   216  H          0.00174800       0.86949300       0.93863100
