data_DETYLE05
_symmetry_space_group_name_H-M    'P1'
_symmetry_Int_Tables_number       1
loop_
_symmetry_equiv_pos_site_id
_symmetry_equiv_pos_as_xyz
1 x,y,z
_cell_length_a                   7.707312
_cell_length_b                   4.08854
_cell_length_c                   13.2332
_cell_angle_alpha                90.0
_cell_angle_beta                 93.79316
_cell_angle_gamma                90.0
loop_
_atom_site_label
_atom_site_type_symbol
_atom_site_fract_x
_atom_site_fract_y
_atom_site_fract_z
     1  O          0.25000000       0.14483000       0.00000000
     2  O          0.75000000       0.64483000       0.50000000
     3  O          0.75000000       0.85517000       0.00000000
     4  O          0.25000000       0.35517000       0.50000000
     5  C          0.19493000       0.34224000       0.08002140
     6  C          0.30507000       0.34224000       0.91997860
     7  C          0.69493000       0.84224000       0.58002140
     8  C          0.80507000       0.84224000       0.41997860
     9  C          0.80507000       0.65776000       0.91997860
    10  C          0.69493000       0.65776000       0.08002140
    11  C          0.30507000       0.15776000       0.41997860
    12  C          0.19493000       0.15776000       0.58002140
    13  H          0.11662800       0.51095400       0.05285400
    14  H          0.38337200       0.51095400       0.94714600
    15  H          0.61662800       0.01095400       0.55285400
    16  H          0.88337200       0.01095400       0.44714600
    17  H          0.88337200       0.48904600       0.94714600
    18  H          0.61662800       0.48904600       0.05285400
    19  H          0.38337200      -0.01095400       0.44714600
    20  H          0.11662800      -0.01095400       0.55285400
    21  H          0.29480100       0.44790600       0.11451400
    22  H          0.20519900       0.44790600       0.88548600
    23  H          0.79480100       0.94790600       0.61451400
    24  H          0.70519900       0.94790600       0.38548600
    25  H          0.70519900       0.55209400       0.88548600
    26  H          0.79480100       0.55209400       0.11451400
    27  H          0.20519900       0.05209400       0.38548600
    28  H          0.29480100       0.05209400       0.61451400
    29  C          0.10453000       0.13524000       0.15316150
    30  C          0.39547000       0.13524000       0.84683850
    31  C          0.60453000       0.63524000       0.65316150
    32  C          0.89547000       0.63524000       0.34683850
    33  C          0.89547000       0.86476000       0.84683850
    34  C          0.60453000       0.86476000       0.15316150
    35  C          0.39547000       0.36476000       0.34683850
    36  C          0.10453000       0.36476000       0.65316150
    37  H          0.06684100       0.26971900       0.20700600
    38  H          0.43315900       0.26971900       0.79299400
    39  H          0.56684100       0.76971900       0.70700600
    40  H          0.93315900       0.76971900       0.29299400
    41  H          0.93315900       0.73028100       0.79299400
    42  H          0.56684100       0.73028100       0.20700600
    43  H          0.43315900       0.23028100       0.29299400
    44  H          0.06684100       0.23028100       0.70700600
    45  H          0.18297400      -0.02923900       0.18069600
    46  H          0.31702600      -0.02923900       0.81930400
    47  H          0.68297400       0.47076100       0.68069600
    48  H          0.81702600       0.47076100       0.31930400
    49  H          0.81702600       0.02923900       0.81930400
    50  H          0.68297400       0.02923900       0.18069600
    51  H          0.31702600       0.52923900       0.31930400
    52  H          0.18297400       0.52923900       0.68069600
    53  H          0.00540900       0.03196300       0.11882600
    54  H          0.49459100       0.03196300       0.88117400
    55  H          0.50540900       0.53196300       0.61882600
    56  H         -0.00540900       0.53196300       0.38117400
    57  H         -0.00540900      -0.03196300       0.88117400
    58  H          0.50540900      -0.03196300       0.11882600
    59  H          0.49459100       0.46803700       0.38117400
    60  H          0.00540900       0.46803700       0.61882600
