data_DETYLE06
_symmetry_space_group_name_H-M    'P1'
_symmetry_Int_Tables_number       1
loop_
_symmetry_equiv_pos_site_id
_symmetry_equiv_pos_as_xyz
1 x,y,z
_cell_length_a                   5.11964
_cell_length_b                   5.66591
_cell_length_c                   7.29994
_cell_angle_alpha                97.2758
_cell_angle_beta                 102.7286
_cell_angle_gamma                96.7471
loop_
_atom_site_label
_atom_site_type_symbol
_atom_site_fract_x
_atom_site_fract_y
_atom_site_fract_z
     1  O          0.50297000       0.20731100       0.31903000
     2  O          0.49703000       0.79268900       0.68097000
     3  C          0.54981200       0.43521800       0.26534000
     4  C          0.45018800       0.56478200       0.73466000
     5  H          0.62801300       0.42225900       0.15550500
     6  H          0.37198700       0.57774100       0.84449500
     7  H          0.67677200       0.54364100       0.36850400
     8  H          0.32322800       0.45635900       0.63149600
     9  C          0.28568000       0.53361400       0.21754000
    10  C          0.71432000       0.46638600       0.78246000
    11  H          0.16764800       0.43512300       0.10670100
    12  H          0.83235200       0.56487700       0.89329900
    13  H          0.31989900       0.69544000       0.19289700
    14  H          0.68010100       0.30456000       0.80710300
    15  H          0.20118800       0.53284800       0.32261100
    16  H          0.79881200       0.46715200       0.67738900
    17  C          0.74398000       0.09871300       0.35933000
    18  C          0.25602000       0.90128700       0.64067000
    19  H          0.71720000      -0.02716500       0.43474500
    20  H          0.28280000       0.02716500       0.56525500
    21  H          0.89229100       0.21895700       0.43404400
    22  H          0.10770900       0.78104300       0.56595600
    23  C          0.81971000      -0.00821600       0.17983000
    24  C          0.18029000       0.00821600       0.82017000
    25  H          0.67913300       0.86453700       0.10970300
    26  H          0.32086700       0.13546300       0.89029700
    27  H         -0.01324100       0.92873100       0.21369600
    28  H          0.01324100       0.07126900       0.78630400
    29  H          0.84095700       0.11456500       0.10261000
    30  H          0.15904300       0.88543500       0.89739000
