data_DETYLE01
_symmetry_space_group_name_H-M    'P1'
_symmetry_Int_Tables_number       1
loop_
_symmetry_equiv_pos_site_id
_symmetry_equiv_pos_as_xyz
1 x,y,z
_cell_length_a                   6.82683
_cell_length_b                   8.142817
_cell_length_c                   7.77313
_cell_angle_alpha                90.0
_cell_angle_beta                 93.4434
_cell_angle_gamma                90.0
loop_
_atom_site_label
_atom_site_type_symbol
_atom_site_fract_x
_atom_site_fract_y
_atom_site_fract_z
     1  O          0.17812130       0.31523000       0.16798120
     2  O          0.82187870       0.81523000       0.33201880
     3  O          0.82187870       0.68477000       0.83201880
     4  O          0.17812130       0.18477000       0.66798120
     5  C          0.07522000       0.45394000       0.23017190
     6  C          0.92478000       0.95394000       0.26982810
     7  C          0.92478000       0.54606000       0.76982810
     8  C          0.07522000       0.04606000       0.73017190
     9  H          0.03426100       0.52569900       0.13510000
    10  H          0.96573900       0.02569900       0.36490000
    11  H          0.96573900       0.47430100       0.86490000
    12  H          0.03426100       0.97430100       0.63510000
    13  H          0.15991100       0.51568900       0.31125800
    14  H          0.84008900       0.01568900       0.18874200
    15  H          0.84008900       0.48431100       0.68874200
    16  H          0.15991100      -0.01568900       0.81125800
    17  C          0.89908000       0.39224000       0.31722000
    18  C          0.10092000       0.89224000       0.18278000
    19  C          0.10092000       0.60776000       0.68278000
    20  C          0.89908000       0.10776000       0.81722000
    21  H          0.81877900       0.32768800       0.23723500
    22  H          0.18122100       0.82768800       0.26276500
    23  H          0.18122100       0.67231200       0.76276500
    24  H          0.81877900       0.17231200       0.73723500
    25  H          0.82462300       0.48371400       0.35558300
    26  H          0.17537700      -0.01628600       0.14441700
    27  H          0.17537700       0.51628600       0.64441700
    28  H          0.82462300       0.01628600       0.85558300
    29  H          0.94129300       0.32558100       0.41438300
    30  H          0.05870700       0.82558100       0.08561700
    31  H          0.05870700       0.67441900       0.58561700
    32  H          0.94129300       0.17441900       0.91438300
    33  C          0.34512000       0.36724000       0.08199190
    34  C          0.65488000       0.86724000       0.41800810
    35  C          0.65488000       0.63276000       0.91800810
    36  C          0.34512000       0.13276000       0.58199190
    37  H          0.42430500       0.44080100       0.15558100
    38  H          0.57569500       0.94080100       0.34441900
    39  H          0.57569500       0.55919900       0.84441900
    40  H          0.42430500       0.05919900       0.65558100
    41  H          0.30402500       0.42571200       0.97725500
    42  H          0.69597500       0.92571200       0.52274500
    43  H          0.69597500       0.57428800       0.02274500
    44  H          0.30402500       0.07428800       0.47725500
    45  C          0.46273000       0.21914000       0.03932000
    46  C          0.53727000       0.71914000       0.46068000
    47  C          0.53727000       0.78086000       0.96068000
    48  C          0.46273000       0.28086000       0.53932000
    49  H          0.38445100       0.14817200       0.96421800
    50  H          0.61554900       0.64817200       0.53578200
    51  H          0.61554900       0.85182800       0.03578200
    52  H          0.38445100       0.35182800       0.46421800
    53  H          0.50166800       0.16125400       0.14339500
    54  H          0.49833200       0.66125400       0.35660500
    55  H          0.49833200       0.83874600       0.85660500
    56  H          0.50166800       0.33874600       0.64339500
    57  H          0.57732500       0.25279800      -0.01717100
    58  H          0.42267500       0.75279800       0.51717100
    59  H          0.42267500       0.74720200       0.01717100
    60  H          0.57732500       0.24720200       0.48282900
