data_DETYLE
_symmetry_space_group_name_H-M    'P1'
_symmetry_Int_Tables_number       1
loop_
_symmetry_equiv_pos_site_id
_symmetry_equiv_pos_as_xyz
1 x,y,z
_cell_length_a                   11.812
_cell_length_b                   8.072
_cell_length_c                   10.853
_cell_angle_alpha                90.0
_cell_angle_beta                 90.0
_cell_angle_gamma                90.0
loop_
_atom_site_label
_atom_site_type_symbol
_atom_site_fract_x
_atom_site_fract_y
_atom_site_fract_z
     1  C          0.14435000       0.41862000       0.60279000
     2  C          0.64435000       0.08138000       0.39721000
     3  C          0.85565000       0.91862000       0.89721000
     4  C          0.35565000       0.58138000       0.10279000
     5  C          0.15823000       0.55001000       0.50525000
     6  C          0.65823000       0.94999000       0.49475000
     7  C          0.84177000       0.05001000      -0.00525000
     8  C          0.34177000       0.44999000       0.00525000
     9  C          0.07745000       0.37533000       0.80567000
    10  C          0.57745000       0.12467000       0.19433000
    11  C          0.92255000       0.87533000       0.69433000
    12  C          0.42255000       0.62467000       0.30567000
    13  C          0.02668000       0.46514000       0.91552000
    14  C          0.52668000       0.03486000       0.08448000
    15  C          0.97332000       0.96514000       0.58448000
    16  C          0.47332000       0.53486000       0.41552000
    17  H          0.22200000       0.36500000       0.61500000
    18  H          0.72200000       0.13500000       0.38500000
    19  H          0.77800000       0.86500000       0.88500000
    20  H          0.27800000       0.63500000       0.11500000
    21  H          0.01300000       0.39300000       0.98200000
    22  H          0.51300000       0.10700000       0.01800000
    23  H          0.98700000       0.89300000       0.51800000
    24  H          0.48700000       0.60700000       0.48200000
    25  H          0.08900000       0.31100000       0.56600000
    26  H          0.58900000       0.18900000       0.43400000
    27  H          0.91100000       0.81100000       0.93400000
    28  H          0.41100000       0.68900000       0.06600000
    29  H          0.21100000       0.63100000       0.53500000
    30  H          0.71100000       0.86900000       0.46500000
    31  H          0.78900000       0.13100000       0.96500000
    32  H          0.28900000       0.36900000       0.03500000
    33  H          0.09200000       0.60200000       0.48700000
    34  H          0.59200000       0.89800000       0.51300000
    35  H          0.90800000       0.10200000       0.01300000
    36  H          0.40800000       0.39800000       0.98700000
    37  H          0.18900000       0.49700000       0.42000000
    38  H          0.68900000       0.00300000       0.58000000
    39  H          0.81100000      -0.00300000       0.08000000
    40  H          0.31100000       0.50300000       0.92000000
    41  H          0.15300000       0.31000000       0.85400000
    42  H          0.65300000       0.19000000       0.14600000
    43  H          0.84700000       0.81000000       0.64600000
    44  H          0.34700000       0.69000000       0.35400000
    45  H          0.01900000       0.26500000       0.77300000
    46  H          0.51900000       0.23500000       0.22700000
    47  H          0.98100000       0.76500000       0.72700000
    48  H          0.48100000       0.73500000       0.27300000
    49  H          0.07100000       0.57500000       0.94200000
    50  H          0.57100000       0.92500000       0.05800000
    51  H          0.92900000       0.07500000       0.55800000
    52  H          0.42900000       0.42500000       0.44200000
    53  H          0.93600000       0.52800000       0.89200000
    54  H          0.43600000       0.97200000       0.10800000
    55  H          0.06400000       0.02800000       0.60800000
    56  H          0.56400000       0.47200000       0.39200000
    57  O          0.09595000       0.49376000       0.70947000
    58  O          0.59595000       0.00624000       0.29053000
    59  O          0.90405000      -0.00624000       0.79053000
    60  O          0.40405000       0.50624000       0.20947000
    61  C          0.25903000       0.11563000       0.30930000
    62  C          0.75903000       0.38437000       0.69070000
    63  C          0.74097000       0.61563000       0.19070000
    64  C          0.24097000       0.88437000       0.80930000
    65  C          0.31014000       0.04214000       0.42285000
    66  C          0.81014000       0.45786000       0.57715000
    67  C          0.68986000       0.54214000       0.07715000
    68  C          0.18986000       0.95786000       0.92285000
    69  C          0.09124000       0.24468000       0.23830000
    70  C          0.59124000       0.25532000       0.76170000
    71  C          0.90876000       0.74468000       0.26170000
    72  C          0.40876000       0.75532000       0.73830000
    73  C          0.97080000       0.28038000       0.27451000
    74  C          0.47080000       0.21962000       0.72549000
    75  C          0.02920000       0.78038000       0.22549000
    76  C          0.52920000       0.71962000       0.77451000
    77  H          0.93500000       0.34300000       0.21600000
    78  H          0.43500000       0.15700000       0.78400000
    79  H          0.06500000       0.84300000       0.28400000
    80  H          0.56500000       0.65700000       0.71600000
    81  H          0.27100000       0.02400000       0.24000000
    82  H          0.77100000       0.47600000       0.76000000
    83  H          0.72900000       0.52400000       0.26000000
    84  H          0.22900000       0.97600000       0.74000000
    85  H          0.31500000       0.23400000       0.27800000
    86  H          0.81500000       0.26600000       0.72200000
    87  H          0.68500000       0.73400000       0.22200000
    88  H          0.18500000       0.76600000       0.77800000
    89  H          0.26700000       0.93800000       0.45100000
    90  H          0.76700000       0.56200000       0.54900000
    91  H          0.73300000       0.43800000       0.04900000
    92  H          0.23300000       0.06200000       0.95100000
    93  H          0.31400000       0.13600000       0.48600000
    94  H          0.81400000       0.36400000       0.51400000
    95  H          0.68600000       0.63600000       0.01400000
    96  H          0.18600000       0.86400000       0.98600000
    97  H          0.39300000       0.00600000       0.40000000
    98  H          0.89300000       0.49400000       0.60000000
    99  H          0.60700000       0.50600000       0.10000000
   100  H          0.10700000      -0.00600000       0.90000000
   101  H          0.09300000       0.18400000       0.16700000
   102  H          0.59300000       0.31600000       0.83300000
   103  H          0.90700000       0.68400000       0.33300000
   104  H          0.40700000       0.81600000       0.66700000
   105  H          0.13400000       0.35800000       0.22000000
   106  H          0.63400000       0.14200000       0.78000000
   107  H          0.86600000       0.85800000       0.28000000
   108  H          0.36600000       0.64200000       0.72000000
   109  H          0.93300000       0.19400000       0.30200000
   110  H          0.43300000       0.30600000       0.69800000
   111  H          0.06700000       0.69400000       0.19800000
   112  H          0.56700000       0.80600000       0.80200000
   113  H          0.96600000       0.34400000       0.36000000
   114  H          0.46600000       0.15600000       0.64000000
   115  H          0.03400000       0.84400000       0.14000000
   116  H          0.53400000       0.65600000       0.86000000
   117  O          0.14438000       0.16109000       0.33776000
   118  O          0.64438000       0.33891000       0.66224000
   119  O          0.85562000       0.66109000       0.16224000
   120  O          0.35562000       0.83891000       0.83776000
