data_DHANQU04
_symmetry_space_group_name_H-M    'P1'
_symmetry_Int_Tables_number       1
loop_
_symmetry_equiv_pos_site_id
_symmetry_equiv_pos_as_xyz
1 x,y,z
_cell_length_a                   21.5782
_cell_length_b                   3.766016
_cell_length_c                   24.6832
_cell_angle_alpha                90.0
_cell_angle_beta                 90.0
_cell_angle_gamma                90.0
loop_
_atom_site_label
_atom_site_type_symbol
_atom_site_fract_x
_atom_site_fract_y
_atom_site_fract_z
     1  C          0.30382000       0.36641200       0.17722000
     2  C          0.69618000       0.63358800       0.67722000
     3  C          0.19618000       0.36641200       0.67722000
     4  C          0.80382000       0.63358800       0.17722000
     5  C          0.25272000       0.27311100       0.21532000
     6  C          0.74728000       0.72688900       0.71532000
     7  C          0.24728000       0.27311100       0.71532000
     8  C          0.75272000       0.72688900       0.21532000
     9  C          0.26524190       0.12001300       0.26642000
    10  C          0.73475810       0.87998700       0.76642000
    11  C          0.23475810       0.12001300       0.76642000
    12  C          0.76524190       0.87998700       0.26642000
    13  C          0.32922000       0.05451100       0.28392000
    14  C          0.67078000       0.94548900       0.78392000
    15  C          0.17078000       0.05451100       0.78392000
    16  C          0.82922000       0.94548900       0.28392000
    17  C          0.38012000       0.15701100       0.24732000
    18  C          0.61988000       0.84298900       0.74732000
    19  C          0.11988000       0.15701100       0.74732000
    20  C          0.88012000       0.84298900       0.24732000
    21  C          0.36932000       0.30951100       0.19642000
    22  C          0.63068000       0.69048900       0.69642000
    23  C          0.13068000       0.30951100       0.69642000
    24  C          0.86932000       0.69048900       0.19642000
    25  C          0.21612000       0.03421100       0.30082000
    26  C          0.78388000      -0.03421100       0.80082000
    27  C          0.28388000       0.03421100       0.80082000
    28  C          0.71612000      -0.03421100       0.30082000
    29  C          0.15472000       0.10481100       0.28462000
    30  C          0.84528000       0.89518900       0.78462000
    31  C          0.34528000       0.10481100       0.78462000
    32  C          0.65472000       0.89518900       0.28462000
    33  H          0.12120000       0.05030000       0.30810000
    34  H          0.87880000       0.94970000       0.80810000
    35  H          0.37880000       0.05030000       0.80810000
    36  H          0.62120000       0.94970000       0.30810000
    37  C          0.14372000       0.25231100       0.23492000
    38  C          0.85628000       0.74768900       0.73492000
    39  C          0.35628000       0.25231100       0.73492000
    40  C          0.64372000       0.74768900       0.23492000
    41  H          0.10220000       0.29980000       0.22420000
    42  H          0.89780000       0.70020000       0.72420000
    43  H          0.39780000       0.29980000       0.72420000
    44  H          0.60220000       0.70020000       0.22420000
    45  C          0.19202000       0.33471200       0.19942000
    46  C          0.80798000       0.66528800       0.69942000
    47  C          0.30798000       0.33471200       0.69942000
    48  C          0.69202000       0.66528800       0.19942000
    49  H          0.18330000       0.43190000       0.16470000
    50  H          0.81670000       0.56810000       0.66470000
    51  H          0.31670000       0.43190000       0.66470000
    52  H          0.68330000       0.56810000       0.16470000
    53  C          0.44182000       0.10631200       0.26332000
    54  C          0.55818000       0.89368800       0.76332000
    55  C          0.05818000       0.10631200       0.76332000
    56  C          0.94182000       0.89368800       0.26332000
    57  C          0.49052000       0.21901000       0.23032000
    58  C          0.50948000       0.78099000       0.73032000
    59  C          0.00948000       0.21901000       0.73032000
    60  C          0.99052000       0.78099000       0.23032000
    61  H          0.53210000       0.19180000       0.24210000
    62  H          0.46790000       0.80820000       0.74210000
    63  H          0.96790000       0.19180000       0.74210000
    64  H          0.03210000       0.80820000       0.24210000
    65  C          0.47802000       0.37001200       0.18062000
    66  C          0.52198000       0.62998800       0.68062000
    67  C          0.02198000       0.37001200       0.68062000
    68  C          0.97802000       0.62998800       0.18062000
    69  H          0.51120000       0.44400000       0.15800000
    70  H          0.48880000       0.55600000       0.65800000
    71  H          0.98880000       0.44400000       0.65800000
    72  H          0.01120000       0.55600000       0.15800000
    73  C          0.41672000       0.41521200       0.16312000
    74  C          0.58328000       0.58478800       0.66312000
    75  C          0.08328000       0.41521200       0.66312000
    76  C          0.91672000       0.58478800       0.16312000
    77  H          0.40820000       0.51740000       0.12870000
    78  H          0.59180000       0.48260000       0.62870000
    79  H          0.09180000       0.51740000       0.62870000
    80  H          0.90820000       0.48260000       0.12870000
    81  O          0.34043140       0.91252000       0.32822000
    82  O          0.65956860       0.08748000       0.82822000
    83  O          0.15956860       0.91252000       0.82822000
    84  O          0.84043140       0.08748000       0.32822000
    85  O          0.29292150       0.49678000       0.13341170
    86  O          0.70707850       0.50322000       0.63341170
    87  O          0.20707850       0.49678000       0.63341170
    88  O          0.79292150       0.50322000       0.13341170
    89  O          0.22336140       0.89121000       0.35038170
    90  O          0.77663860       0.10879000       0.85038170
    91  O          0.27663860       0.89121000       0.85038170
    92  O          0.72336140       0.10879000       0.35038170
    93  H          0.25920000       0.80620000       0.35320000
    94  H          0.74080000       0.19380000       0.85320000
    95  H          0.24080000       0.80620000       0.85320000
    96  H          0.75920000       0.19380000       0.35320000
    97  O          0.45781140       0.95222000       0.31049160
    98  O          0.54218860       0.04778000       0.81049160
    99  O          0.04218860       0.95222000       0.81049160
   100  O          0.95781140       0.04778000       0.31049160
   101  H          0.42580000       0.88000000       0.32640000
   102  H          0.57420000       0.12000000       0.82640000
   103  H          0.07420000       0.88000000       0.82640000
   104  H          0.92580000       0.12000000       0.32640000
   105  C          0.48742000       0.94738800       0.54132000
   106  C          0.51258000       0.05261200       0.04132000
   107  C          0.01258000       0.94738800       0.04132000
   108  C          0.98742000       0.05261200       0.54132000
   109  C          0.42112000       0.85998900       0.53172000
   110  C          0.57888000       0.14001100       0.03172000
   111  C          0.07888000       0.85998900       0.03172000
   112  C          0.92112000       0.14001100       0.53172000
   113  C          0.40302000       0.69538900       0.48302000
   114  C          0.59698000       0.30461100       0.98302000
   115  C          0.09698000       0.69538900       0.98302000
   116  C          0.90302000       0.30461100       0.48302000
   117  C          0.44952000       0.59138800       0.44262000
   118  C          0.55048000       0.40861200       0.94262000
   119  C          0.05048000       0.59138800       0.94262000
   120  C          0.94952000       0.40861200       0.44262000
   121  C          0.51562000       0.65728900       0.45312000
   122  C          0.48438000       0.34271100       0.95312000
   123  C          0.98438000       0.65728900       0.95312000
   124  C          0.01562000       0.34271100       0.45312000
   125  C          0.53432000       0.82508900       0.50162000
   126  C          0.46568000       0.17491100       0.00162000
   127  C          0.96568000       0.82508900       0.00162000
   128  C          0.03432000       0.17491100       0.50162000
   129  C          0.33952000       0.62438900       0.47422000
   130  C          0.66048000       0.37561100       0.97422000
   131  C          0.16048000       0.62438900       0.97422000
   132  C          0.83952000       0.37561100       0.47422000
   133  C          0.29662000       0.71998900       0.51432000
   134  C          0.70338000       0.28001100       0.01432000
   135  C          0.20338000       0.71998900       0.01432000
   136  C          0.79662000       0.28001100       0.51432000
   137  H          0.25370000       0.67390000       0.50870000
   138  H          0.74630000       0.32610000       0.00870000
   139  H          0.24630000       0.67390000       0.00870000
   140  H          0.75370000       0.32610000       0.50870000
   141  C          0.31542000       0.87708800       0.56072000
   142  C          0.68458000       0.12291200       0.06072000
   143  C          0.18458000       0.87708800       0.06072000
   144  C          0.81542000       0.12291200       0.56072000
   145  H          0.28550000       0.94040000       0.58730000
   146  H          0.71450000       0.05960000       0.08730000
   147  H          0.21450000       0.94040000       0.08730000
   148  H          0.78550000       0.05960000       0.58730000
   149  C          0.37802000       0.94808800       0.57052000
   150  C          0.62198000       0.05191200       0.07052000
   151  C          0.12198000       0.94808800       0.07052000
   152  C          0.87802000       0.05191200       0.57052000
   153  H          0.39060000       0.05570000       0.60350000
   154  H          0.60940000       0.94430000       0.10350000
   155  H          0.10940000       0.05570000       0.10350000
   156  H          0.89060000       0.94430000       0.60350000
   157  C          0.56122000       0.55338800       0.41532000
   158  C          0.43878000       0.44661200       0.91532000
   159  C          0.93878000       0.55338800       0.91532000
   160  C          0.06122000       0.44661200       0.41532000
   161  C          0.62412000       0.61918800       0.42692000
   162  C          0.37588000       0.38081200       0.92692000
   163  C          0.87588000       0.61918800       0.92692000
   164  C          0.12412000       0.38081200       0.42692000
   165  H          0.65520000       0.55190000       0.40170000
   166  H          0.34480000       0.44810000       0.90170000
   167  H          0.84480000       0.55190000       0.90170000
   168  H          0.15520000       0.44810000       0.40170000
   169  C          0.64022000       0.78028800       0.47462000
   170  C          0.35978000       0.21971200       0.97462000
   171  C          0.85978000       0.78028800       0.97462000
   172  C          0.14022000       0.21971200       0.47462000
   173  H          0.68280000       0.82350000       0.48180000
   174  H          0.31720000       0.17650000       0.98180000
   175  H          0.81720000       0.82350000       0.98180000
   176  H          0.18280000       0.17650000       0.48180000
   177  C          0.59632000       0.88268700       0.51272000
   178  C          0.40368000       0.11731300       0.01272000
   179  C          0.90368000       0.88268700       0.01272000
   180  C          0.09632000       0.11731300       0.51272000
   181  H          0.60870000      -0.00970000       0.54580000
   182  H          0.39130000       0.00970000       0.04580000
   183  H          0.89130000      -0.00970000       0.04580000
   184  H          0.10870000       0.00970000       0.54580000
   185  O          0.43282140       0.43871000       0.40002000
   186  O          0.56717860       0.56129000       0.90002000
   187  O          0.06717860       0.43871000       0.90002000
   188  O          0.93282140       0.56129000       0.40002000
   189  O          0.50276150       0.12468000       0.58096160
   190  O          0.49723850       0.87532000       0.08096160
   191  O         -0.00276150       0.12468000       0.08096160
   192  O          0.00276150       0.87532000       0.58096160
   193  O          0.31803140       0.46942000       0.42940170
   194  O          0.68196860       0.53058000       0.92940170
   195  O          0.18196860       0.46942000       0.92940170
   196  O          0.81803140       0.53058000       0.42940170
   197  H          0.34720000       0.44020000       0.40740000
   198  H          0.65280000       0.55980000       0.90740000
   199  H          0.15280000       0.44020000       0.90740000
   200  H          0.84720000       0.55980000       0.40740000
   201  O          0.54887130       0.39051000       0.36848160
   202  O          0.45112870       0.60949000       0.86848160
   203  O          0.95112870       0.39051000       0.86848160
   204  O          0.04887130       0.60949000       0.36848160
   205  H          0.51030000       0.37880000       0.36410000
   206  H          0.48970000       0.62120000       0.86410000
   207  H          0.98970000       0.37880000       0.86410000
   208  H          0.01030000       0.62120000       0.36410000
