data_DHANQU06
_symmetry_space_group_name_H-M    'P1'
_symmetry_Int_Tables_number       1
loop_
_symmetry_equiv_pos_site_id
_symmetry_equiv_pos_as_xyz
1 x,y,z
_cell_length_a                   7.29305
_cell_length_b                   9.50017
_cell_length_c                   14.720811
_cell_angle_alpha                90.0
_cell_angle_beta                 91.6342
_cell_angle_gamma                90.0
loop_
_atom_site_label
_atom_site_type_symbol
_atom_site_fract_x
_atom_site_fract_y
_atom_site_fract_z
     1  O          0.22802000       0.15965150       0.14323900
     2  O          0.27198000       0.65965150       0.35676100
     3  O          0.77198000       0.84034850       0.85676100
     4  O          0.72802000       0.34034850       0.64323900
     5  O          0.29652000       0.81218830       0.85641100
     6  O          0.20348000       0.31218830       0.64358900
     7  O          0.70348000       0.18781170       0.14358900
     8  O          0.79652000       0.68781170       0.35641100
     9  O          0.11552000       0.95368840       0.24121100
    10  O          0.38448000       0.45368840       0.25878900
    11  O          0.88448000       0.04631160       0.75878900
    12  O          0.61552000       0.54631160       0.74121100
    13  H          0.16210000       0.03330000       0.23250000
    14  H          0.33790000       0.53330000       0.26750000
    15  H          0.83790000       0.96670000       0.76750000
    16  H          0.66210000       0.46670000       0.73250000
    17  O          0.34622000       0.36956150       0.04839100
    18  O          0.15378000       0.86956150       0.45160900
    19  O          0.65378000       0.63043850       0.95160900
    20  O          0.84622000       0.13043850       0.54839100
    21  H          0.31430000       0.32780000       0.09570000
    22  H          0.18570000       0.82780000       0.40430000
    23  H          0.68570000       0.67220000       0.90430000
    24  H          0.81430000       0.17220000       0.59570000
    25  C          0.27243000       0.89268000       0.92014870
    26  C          0.22757000       0.39268000       0.57985130
    27  C          0.72757000       0.10732000       0.07985130
    28  C          0.77243000       0.60732000       0.42014870
    29  C          0.20012000       0.84048000       0.00713120
    30  C          0.29988000       0.34048000       0.49286880
    31  C          0.79988000       0.15952000      -0.00713120
    32  C          0.70012000       0.65952000       0.50713120
    33  C          0.18653000       0.93178000       0.08244130
    34  C          0.31347000       0.43178000       0.41755870
    35  C          0.81347000       0.06822000       0.91755870
    36  C          0.68653000       0.56822000       0.58244130
    37  C          0.23923000       0.08072000       0.07546130
    38  C          0.26077000       0.58072000       0.42453870
    39  C          0.76077000       0.91928000       0.92453870
    40  C          0.73923000       0.41928000       0.57546130
    41  C          0.30382000       0.13482000       0.98933870
    42  C          0.19618000       0.63482000       0.51066130
    43  C          0.69618000       0.86518000       0.01066130
    44  C          0.80382000       0.36518000       0.48933870
    45  C          0.31682000       0.04532000       0.91246870
    46  C          0.18318000       0.54532000       0.58753130
    47  C          0.68318000       0.95468000       0.08753130
    48  C          0.81682000       0.45468000       0.41246870
    49  C          0.12343000       0.87718000       0.16498130
    50  C          0.37657000       0.37718000       0.33501870
    51  C          0.87657000       0.12282000       0.83501870
    52  C          0.62343000       0.62282000       0.66498130
    53  C          0.06833000       0.73618000       0.16988130
    54  C          0.43167000       0.23618000       0.33011870
    55  C          0.93167000       0.26382000       0.83011870
    56  C          0.56833000       0.76382000       0.66988130
    57  H          0.02070000       0.70040000       0.22460000
    58  H          0.47930000       0.20040000       0.27540000
    59  H          0.97930000       0.29960000       0.77540000
    60  H          0.52070000       0.79960000       0.72460000
    61  C          0.08313000       0.64978000       0.09578140
    62  C          0.41687000       0.14978000       0.40421860
    63  C          0.91687000       0.35022000       0.90421860
    64  C          0.58313000       0.85022000       0.59578140
    65  H          0.04670000       0.55410000       0.10000000
    66  H          0.45330000       0.05410000       0.40000000
    67  H          0.95330000       0.44590000       0.90000000
    68  H          0.54670000       0.94590000       0.60000000
    69  C          0.15073000       0.70028000       0.01453140
    70  C          0.34927000       0.20028000       0.48546860
    71  C          0.84927000       0.29972000       0.98546860
    72  C          0.65073000       0.79972000       0.51453140
    73  H          0.16300000       0.63860000       0.96420000
    74  H          0.33700000       0.13860000       0.53580000
    75  H          0.83700000       0.36140000       0.03580000
    76  H          0.66300000       0.86140000       0.46420000
    77  C          0.35213000       0.27802000       0.98009860
    78  C          0.14787000       0.77802000       0.51990140
    79  C          0.64787000       0.72198000       0.01990140
    80  C          0.85213000       0.22198000       0.48009860
    81  C          0.40963000       0.32832000       0.89634860
    82  C          0.09037000       0.82832000       0.60365140
    83  C          0.59037000       0.67168000       0.10365140
    84  C          0.90963000       0.17168000       0.39634860
    85  H          0.44250000       0.42450000       0.89020000
    86  H          0.05750000       0.92450000       0.60980000
    87  H          0.55750000       0.57550000       0.10980000
    88  H          0.94250000       0.07550000       0.39020000
    89  C          0.41893000       0.23993000       0.82307860
    90  C          0.08107000       0.73993000       0.67692140
    91  C          0.58107000       0.76007000       0.17692140
    92  C          0.91893000       0.26007000       0.32307860
    93  H          0.45720000       0.27570000       0.76640000
    94  H          0.04280000       0.77570000       0.73360000
    95  H          0.54280000       0.72430000       0.23360000
    96  H          0.95720000       0.22430000       0.26640000
    97  C          0.37293000       0.09812000       0.83058870
    98  C          0.12707000       0.59812000       0.66941130
    99  C          0.62707000       0.90188000       0.16941130
   100  C          0.87293000       0.40188000       0.33058870
   101  H          0.38010000       0.03790000       0.77930000
   102  H          0.11990000       0.53790000       0.72070000
   103  H          0.61990000       0.96210000       0.22070000
   104  H          0.88010000       0.46210000       0.27930000
