data_DHANQU01
_symmetry_space_group_name_H-M    'P1'
_symmetry_Int_Tables_number       1
loop_
_symmetry_equiv_pos_site_id
_symmetry_equiv_pos_as_xyz
1 x,y,z
_cell_length_a                   5.74406
_cell_length_b                   5.74406
_cell_length_c                   31.3933
_cell_angle_alpha                90.0
_cell_angle_beta                 90.0
_cell_angle_gamma                90.0
loop_
_atom_site_label
_atom_site_type_symbol
_atom_site_fract_x
_atom_site_fract_y
_atom_site_fract_z
     1  O          0.52163000       0.52163000       0.00000000
     2  O          0.02163000      -0.02163000       0.75000000
     3  O          0.47837000       0.47837000       0.50000000
     4  O         -0.02163000       0.02163000       0.25000000
     5  O          0.72514000       0.33745000       0.06320100
     6  O          0.22514000       0.16255000       0.68679900
     7  O          0.27486000       0.66255000       0.56320100
     8  O          0.77486000       0.83745000       0.18679900
     9  O          0.33745000       0.72514000       0.93679900
    10  O          0.83745000       0.77486000       0.81320100
    11  O          0.16255000       0.22514000       0.31320100
    12  O          0.66255000       0.27486000       0.43679900
    13  O          0.86366000       0.86366000       0.00000000
    14  O          0.36366000       0.63634000       0.75000000
    15  O          0.13634000       0.13634000       0.50000000
    16  O          0.63634000       0.36366000       0.25000000
    17  C          0.36805000       0.36805000       0.00000000
    18  C          0.86805000       0.13195000       0.75000000
    19  C          0.63195000       0.63195000       0.50000000
    20  C          0.13195000       0.86805000       0.25000000
    21  C          0.37235000       0.18635000       0.03190100
    22  C          0.87235000       0.31365000       0.71809900
    23  C          0.62765000       0.81365000       0.53190100
    24  C          0.12765000       0.68635000       0.21809900
    25  C          0.18635000       0.37235000       0.96809900
    26  C          0.68635000       0.12765000       0.78190100
    27  C          0.31365000       0.87235000       0.28190100
    28  C          0.81365000       0.62765000       0.46809900
    29  C          0.55136000       0.18106000       0.06240100
    30  C          0.05136000       0.31894000       0.68759900
    31  C          0.44864000       0.81894000       0.56240100
    32  C          0.94864000       0.68106000       0.18759900
    33  C          0.18106000       0.55136000       0.93759900
    34  C          0.68106000       0.94864000       0.81240100
    35  C          0.31894000       0.05136000       0.31240100
    36  C          0.81894000       0.44864000       0.43759900
    37  C          0.55528000       0.00698000       0.09280100
    38  C          0.05528000       0.49302000       0.65719900
    39  C          0.44472000      -0.00698000       0.59280100
    40  C          0.94472000       0.50698000       0.15719900
    41  C          0.00698000       0.55528000       0.90719900
    42  C          0.50698000       0.94472000       0.84280100
    43  C          0.49302000       0.05528000       0.34280100
    44  C         -0.00698000       0.44472000       0.40719900
    45  C          0.38339000       0.84322000       0.09360100
    46  C          0.88339000       0.65678000       0.65639900
    47  C          0.61661000       0.15678000       0.59360100
    48  C          0.11661000       0.34322000       0.15639900
    49  C          0.84322000       0.38339000       0.90639900
    50  C          0.34322000       0.11661000       0.84360100
    51  C          0.65678000       0.88339000       0.34360100
    52  C          0.15678000       0.61661000       0.40639900
    53  C          0.20477000       0.84444000       0.06380100
    54  C          0.70477000       0.65556000       0.68619900
    55  C          0.79523000       0.15556000       0.56380100
    56  C          0.29523000       0.34444000       0.18619900
    57  C          0.84444000       0.20477000       0.93619900
    58  C          0.34444000       0.29523000       0.81380100
    59  C          0.65556000       0.70477000       0.31380100
    60  C          0.15556000       0.79523000       0.43619900
    61  C          0.19836000       0.01435000       0.03280100
    62  C          0.69836000       0.48565000       0.71719900
    63  C          0.80164000      -0.01435000       0.53280100
    64  C          0.30164000       0.51435000       0.21719900
    65  C          0.01435000       0.19836000       0.96719900
    66  C          0.51435000       0.30164000       0.78280100
    67  C          0.48565000       0.69836000       0.28280100
    68  C         -0.01435000       0.80164000       0.46719900
    69  C          0.01385000       0.01385000       0.00000000
    70  C          0.51385000       0.48615000       0.75000000
    71  C         -0.01385000      -0.01385000       0.50000000
    72  C          0.48615000       0.51385000       0.25000000
    73  H          0.70990000       0.42850000       0.04330000
    74  H          0.20990000       0.07150000       0.70670000
    75  H          0.29010000       0.57150000       0.54330000
    76  H          0.79010000       0.92850000       0.20670000
    77  H          0.42850000       0.70990000       0.95670000
    78  H          0.92850000       0.79010000       0.79330000
    79  H          0.07150000       0.20990000       0.29330000
    80  H          0.57150000       0.29010000       0.45670000
    81  H          0.67500000       0.00140000       0.11270000
    82  H          0.17500000       0.49860000       0.63730000
    83  H          0.32500000      -0.00140000       0.61270000
    84  H          0.82500000       0.50140000       0.13730000
    85  H          0.00140000       0.67500000       0.88730000
    86  H          0.50140000       0.82500000       0.86270000
    87  H          0.49860000       0.17500000       0.36270000
    88  H         -0.00140000       0.32500000       0.38730000
    89  H          0.38580000       0.72850000       0.11450000
    90  H          0.88580000       0.77150000       0.63550000
    91  H          0.61420000       0.27150000       0.61450000
    92  H          0.11420000       0.22850000       0.13550000
    93  H          0.72850000       0.38580000       0.88550000
    94  H          0.22850000       0.11420000       0.86450000
    95  H          0.77150000       0.88580000       0.36450000
    96  H          0.27150000       0.61420000       0.38550000
    97  H          0.08950000       0.73080000       0.06470000
    98  H          0.58950000       0.76920000       0.68530000
    99  H          0.91050000       0.26920000       0.56470000
   100  H          0.41050000       0.23080000       0.18530000
   101  H          0.73080000       0.08950000       0.93530000
   102  H          0.23080000       0.41050000       0.81470000
   103  H          0.76920000       0.58950000       0.31470000
   104  H          0.26920000       0.91050000       0.43530000
