data_DHANQU05
_symmetry_space_group_name_H-M    'P1'
_symmetry_Int_Tables_number       1
loop_
_symmetry_equiv_pos_site_id
_symmetry_equiv_pos_as_xyz
1 x,y,z
_cell_length_a                   10.211015
_cell_length_b                   10.308015
_cell_length_c                   19.7763
_cell_angle_alpha                78.0588
_cell_angle_beta                 83.9059
_cell_angle_gamma                88.99511
loop_
_atom_site_label
_atom_site_type_symbol
_atom_site_fract_x
_atom_site_fract_y
_atom_site_fract_z
     1  C         -0.00586000       0.22084000       0.40372000
     2  C          0.00586000       0.77916000       0.59628000
     3  C          0.89244000       0.18284000       0.36302000
     4  C          0.10756000       0.81716000       0.63698000
     5  C          0.77214000       0.12374000       0.39692000
     6  C          0.22786000       0.87626000       0.60308000
     7  C          0.74994000       0.09544000       0.47212000
     8  C          0.25006000       0.90456000       0.52788000
     9  C          0.85564000       0.12114000       0.51422000
    10  C          0.14436000       0.87886000       0.48578000
    11  C          0.97394000       0.18184000       0.47942000
    12  C          0.02606000       0.81816000       0.52058000
    13  C          0.67764000       0.09404000       0.35712000
    14  C          0.32236000       0.90596000       0.64288000
    15  C          0.70374000       0.11274000       0.28512000
    16  C          0.29626000       0.88726000       0.71488000
    17  H          0.64040000       0.08710000       0.25840000
    18  H          0.35960000       0.91290000       0.74160000
    19  C          0.82214000       0.16874000       0.25272000
    20  C          0.17786000       0.83126000       0.74728000
    21  H          0.83930000       0.18240000       0.20350000
    22  H          0.16070000       0.81760000       0.79650000
    23  C          0.91604000       0.20494000       0.29122000
    24  C          0.08396000       0.79506000       0.70878000
    25  H         -0.00370000       0.24490000       0.26840000
    26  H          0.00370000       0.75510000       0.73160000
    27  C          0.84044000       0.08474000       0.58702000
    28  C          0.15956000       0.91526000       0.41298000
    29  C          0.94164000       0.10854000       0.62472000
    30  C          0.05836000       0.89146000       0.37528000
    31  H          0.93130000       0.08390000       0.67400000
    32  H          0.06870000       0.91610000       0.32600000
    33  C          0.05634000       0.16764000       0.59072000
    34  C          0.94366000       0.83236000       0.40928000
    35  H          0.12490000       0.18380000       0.61690000
    36  H          0.87510000       0.81620000       0.38310000
    37  C          0.07374000       0.20444000       0.51832000
    38  C          0.92626000       0.79556000       0.48168000
    39  H          0.15390000       0.24500000       0.49560000
    40  H          0.84610000       0.75500000       0.50440000
    41  O          0.64293000       0.04613000       0.50363150
    42  O          0.35707000       0.95387000       0.49636850
    43  O          0.09493000       0.28023000       0.37364170
    44  O          0.90507000       0.71977000       0.62635830
    45  O          0.55883000       0.04403000       0.38531150
    46  O          0.44117000       0.95597000       0.61468850
    47  H          0.55710000       0.02540000       0.42880000
    48  H          0.44290000       0.97460000       0.57120000
    49  O          0.73043000       0.02533000       0.62400140
    50  O          0.26957000       0.97467000       0.37599860
    51  H          0.67740000       0.01090000       0.59660000
    52  H          0.32260000       0.98910000       0.40340000
    53  C          0.47524000       0.29574000       0.53582000
    54  C          0.52476000       0.70426000       0.46418000
    55  C          0.55444000       0.35554000       0.46962000
    56  C          0.44556000       0.64446000       0.53038000
    57  C          0.67814000       0.41414000       0.47002000
    58  C          0.32186000       0.58586000       0.52998000
    59  C          0.73074000       0.41684000       0.53582000
    60  C          0.26926000       0.58316000       0.46418000
    61  C          0.65674000       0.35424000       0.60152000
    62  C          0.34326000       0.64576000       0.39848000
    63  C          0.53354000       0.29234000       0.60202000
    64  C          0.46646000       0.70766000       0.39798000
    65  C          0.74884000       0.46804000       0.40602000
    66  C          0.25116000       0.53196000       0.59398000
    67  C          0.69744000       0.46474000       0.34412000
    68  C          0.30256000       0.53526000       0.65588000
    69  H          0.74610000       0.50210000       0.30100000
    70  H          0.25390000       0.49790000       0.69900000
    71  C          0.57574000       0.40734000       0.34482000
    72  C          0.42426000       0.59266000       0.65518000
    73  H          0.54160000       0.40470000       0.30220000
    74  H          0.45840000       0.59530000       0.69780000
    75  C          0.50274000       0.35344000       0.40762000
    76  C          0.49726000       0.64656000       0.59238000
    77  H          0.41840000       0.31550000       0.40810000
    78  H          0.58160000       0.68450000       0.59190000
    79  C          0.70584000       0.35274000       0.66452000
    80  C          0.29416000       0.64726000       0.33548000
    81  C          0.63665000       0.28604000       0.72682000
    82  C          0.36335000       0.71396000       0.27318000
    83  H          0.67100000       0.28390000       0.76980000
    84  H          0.32900000       0.71610000       0.23020000
    85  C          0.51945000       0.22394000       0.72572000
    86  C          0.48055000       0.77606000       0.27428000
    87  H          0.47490000       0.17630000       0.76790000
    88  H          0.52510000       0.82370000       0.23210000
    89  C          0.46534000       0.22954000       0.66432000
    90  C          0.53466000       0.77046000       0.33568000
    91  H          0.38170000       0.19040000       0.66450000
    92  H          0.61830000       0.80960000       0.33550000
    93  O          0.84093000       0.47053000       0.53504150
    94  O          0.15907000       0.52947000       0.46495850
    95  O          0.36513000       0.24963000       0.53640150
    96  O          0.63487000       0.75037000       0.46359850
    97  O          0.86903000       0.52323000       0.40172160
    98  O          0.13097000       0.47677000       0.59827840
    99  H          0.88910000       0.52230000       0.44190000
   100  H          0.11090000       0.47770000       0.55810000
   101  O          0.81953000       0.41193000       0.67009150
   102  O          0.18047000       0.58807000       0.32990850
   103  H          0.85000000       0.45460000       0.63080000
   104  H          0.15000000       0.54540000       0.36920000
   105  C          0.17414000       0.04314000       0.91458000
   106  C          0.82586000       0.95686000       0.08542000
   107  C          0.17214000       0.03394000       0.98998000
   108  C          0.82786000       0.96606000       0.01002000
   109  C          0.12264000       0.13754000       0.02192000
   110  C          0.87736000       0.86246000       0.97808000
   111  C          0.07384000       0.25684000       0.97928000
   112  C          0.92616000       0.74316000       0.02072000
   113  C          0.07484000       0.27004000       0.90558000
   114  C          0.92516000       0.72996000       0.09442000
   115  C          0.12274000       0.16764000       0.87238000
   116  C          0.87726000       0.83236000       0.12762000
   117  C          0.11924000       0.12184000       0.09392000
   118  C          0.88076000       0.87816000       0.90608000
   119  C          0.16734000       0.00404000       0.13352000
   120  C          0.83266000      -0.00404000       0.86648000
   121  H          0.16550000      -0.00730000       0.18250000
   122  H          0.83450000       0.00730000       0.81750000
   123  C          0.21604000       0.90756000       0.10102000
   124  C          0.78396000       0.09244000       0.89898000
   125  H          0.24890000       0.82910000       0.12800000
   126  H          0.75110000       0.17090000       0.87200000
   127  C          0.21974000       0.91916000       0.03042000
   128  C          0.78026000       0.08084000       0.96958000
   129  H          0.25440000       0.84950000       0.00920000
   130  H          0.74560000       0.15050000       0.99080000
   131  C          0.03094000       0.38694000       0.86278000
   132  C          0.96906000       0.61306000       0.13722000
   133  C          0.02704000       0.39514000       0.79198000
   134  C          0.97296000       0.60486000       0.20802000
   135  H         -0.00630000       0.47290000       0.76460000
   136  H          0.00630000       0.52710000       0.23540000
   137  C          0.07044000       0.29285000       0.76138000
   138  C          0.92956000       0.70715000       0.23862000
   139  H          0.06700000       0.29980000       0.71300000
   140  H          0.93300000       0.70020000       0.28700000
   141  C          0.12014000       0.17714000       0.80138000
   142  C          0.87986000       0.82286000       0.19862000
   143  H          0.15160000       0.10630000       0.78020000
   144  H          0.84840000       0.89370000       0.21980000
   145  O          0.02993000       0.35073000       0.00876160
   146  O          0.97007000       0.64927000       0.99123840
   147  O          0.21753000       0.95287000       0.88655840
   148  O          0.78247000       0.04713000       0.11344160
   149  O          0.07233000       0.21383000       0.12976150
   150  O          0.92767000       0.78617000       0.87023850
   151  H          0.05290000       0.28280000       0.10190000
   152  H          0.94710000       0.71720000       0.89810000
   153  O         -0.00973000       0.49483000       0.88873850
   154  O          0.00973000       0.50517000       0.11126150
   155  H         -0.01020000       0.47700000       0.93220000
   156  H          0.01020000       0.52300000       0.06780000
   157  C          0.31604000       0.50784000       0.05552000
   158  C          0.68396000       0.49216000       0.94448000
   159  C          0.33754000       0.47425000       0.98548000
   160  C          0.66246000       0.52575000       0.01452000
   161  C          0.39164000       0.34824000       0.97898000
   162  C          0.60836000       0.65176000       0.02102000
   163  C          0.42694000       0.25244000       0.04112000
   164  C          0.57306000       0.74756000       0.95888000
   165  C          0.39434000       0.28044000       0.10952000
   166  C          0.60566000       0.71956000       0.89048000
   167  C          0.33664000       0.40354000       0.11752000
   168  C          0.66336000       0.59646000       0.88248000
   169  C          0.41324000       0.31875000       0.91288000
   170  C          0.58676000       0.68125000       0.08712000
   171  C          0.38074000       0.40984000       0.85538000
   172  C          0.61926000       0.59016000       0.14462000
   173  H          0.39480000       0.38880000       0.81060000
   174  H          0.60520000       0.61120000       0.18940000
   175  C          0.32774000       0.53155000       0.86258000
   176  C          0.67226000       0.46845000       0.13742000
   177  H          0.30540000       0.59350000       0.82290000
   178  H          0.69460000       0.40650000       0.17710000
   179  C          0.30704000       0.56354000       0.92848000
   180  C          0.69296000       0.43646000       0.07152000
   181  H          0.27160000       0.64740000       0.93330000
   182  H          0.72840000       0.35260000       0.06670000
   183  C          0.41374000       0.18804000       0.16902000
   184  C          0.58626000       0.81196000       0.83098000
   185  C          0.37234000       0.21215000       0.23552000
   186  C          0.62766000       0.78785000       0.76448000
   187  H          0.38470000       0.14700000       0.27600000
   188  H          0.61530000       0.85300000       0.72400000
   189  C          0.31334000       0.33195000       0.24113000
   190  C          0.68666000       0.66805000       0.75887000
   191  H          0.28370000       0.34800000       0.28580000
   192  H          0.71630000       0.65200000       0.71420000
   193  C          0.29654000       0.42894000       0.18272000
   194  C          0.70346000       0.57106000       0.81728000
   195  H          0.25800000       0.51160000       0.18730000
   196  H          0.74200000       0.48840000       0.81270000
   197  O          0.47863000       0.14423000       0.03398160
   198  O          0.52137000       0.85577000       0.96601840
   199  O          0.28253000       0.61993000       0.06089160
   200  O          0.71747000       0.38007000       0.93910840
   201  O          0.46233000       0.20283000       0.90131840
   202  O          0.53767000       0.79717000       0.09868160
   203  H          0.48300000       0.15620000       0.93870000
   204  H          0.51700000       0.84380000       0.06130000
   205  O          0.47453000       0.07003000       0.16711160
   206  O          0.52547000       0.92997000       0.83288840
   207  H          0.49290000       0.06320000       0.12560000
   208  H          0.50710000       0.93680000       0.87440000
