data_DHNAPH02
_symmetry_space_group_name_H-M    'P1'
_symmetry_Int_Tables_number       1
loop_
_symmetry_equiv_pos_site_id
_symmetry_equiv_pos_as_xyz
1 x,y,z
_cell_length_a                   5.41
_cell_length_b                   6.4
_cell_length_c                   11.85
_cell_angle_alpha                90.0
_cell_angle_beta                 91.38
_cell_angle_gamma                90.0
loop_
_atom_site_label
_atom_site_type_symbol
_atom_site_fract_x
_atom_site_fract_y
_atom_site_fract_z
     1  C          0.64600000       0.95200000       0.85200000
     2  C          0.35400000       0.45200000       0.64800000
     3  C          0.35400000       0.04800000       0.14800000
     4  C          0.64600000       0.54800000       0.35200000
     5  C          0.83500000       0.10000000       0.86900000
     6  C          0.16500000       0.60000000       0.63100000
     7  C          0.16500000       0.90000000       0.13100000
     8  C          0.83500000       0.40000000       0.36900000
     9  C          0.00600000       0.08700000       0.96400000
    10  C         -0.00600000       0.58700000       0.53600000
    11  C         -0.00600000       0.91300000       0.03600000
    12  C          0.00600000       0.41300000       0.46400000
    13  C          0.19900000       0.24700000       0.98300000
    14  C          0.80100000       0.74700000       0.51700000
    15  C          0.80100000       0.75300000       0.01700000
    16  C          0.19900000       0.25300000       0.48300000
    17  C          0.63200000       0.78200000       0.92200000
    18  C          0.36800000       0.28200000       0.57800000
    19  C          0.36800000       0.21800000       0.07800000
    20  C          0.63200000       0.71800000       0.42200000
    21  H          0.54500000      -0.01700000       0.75800000
    22  H          0.45500000       0.48300000       0.74200000
    23  H          0.45500000       0.01700000       0.24200000
    24  H          0.54500000       0.51700000       0.25800000
    25  H          0.50000000       0.63300000       0.91200000
    26  H          0.50000000       0.13300000       0.58800000
    27  H          0.50000000       0.36700000       0.08800000
    28  H          0.50000000       0.86700000       0.41200000
    29  H          0.11700000       0.40000000       0.82500000
    30  H          0.88300000       0.90000000       0.67500000
    31  H          0.88300000       0.60000000       0.17500000
    32  H          0.11700000       0.10000000       0.32500000
    33  O          0.84100000       0.26700000       0.80300000
    34  O          0.15900000       0.76700000       0.69700000
    35  O          0.15900000       0.73300000       0.19700000
    36  O          0.84100000       0.23300000       0.30300000
    37  O          0.20700000       0.40800000       0.91700000
    38  O          0.79300000       0.90800000       0.58300000
    39  O          0.79300000       0.59200000       0.08300000
    40  O          0.20700000       0.09200000       0.41700000
