data_DHNAPH04
_symmetry_space_group_name_H-M    'P1'
_symmetry_Int_Tables_number       1
loop_
_symmetry_equiv_pos_site_id
_symmetry_equiv_pos_as_xyz
1 x,y,z
_cell_length_a                   7.906
_cell_length_b                   7.324
_cell_length_c                   14.05
_cell_angle_alpha                90.0
_cell_angle_beta                 96.58
_cell_angle_gamma                90.0
loop_
_atom_site_label
_atom_site_type_symbol
_atom_site_fract_x
_atom_site_fract_y
_atom_site_fract_z
     1  C          0.94630000       0.16640000       0.83990000
     2  C          0.55370000       0.66640000       0.66010000
     3  C          0.05370000       0.83360000       0.16010000
     4  C          0.44630000       0.33360000       0.33990000
     5  C          0.04300000       0.21190000       0.92950000
     6  C          0.45700000       0.71190000       0.57050000
     7  C          0.95700000       0.78810000       0.07050000
     8  C          0.54300000       0.28810000       0.42950000
     9  C          0.04520000       0.08620000       0.00720000
    10  C          0.45480000       0.58620000       0.49280000
    11  C          0.95480000       0.91380000      -0.00720000
    12  C          0.54520000       0.41380000       0.50720000
    13  C          0.13790000       0.12500000       0.09850000
    14  C          0.36210000       0.62500000       0.40150000
    15  C          0.86210000       0.87500000       0.90150000
    16  C          0.63790000       0.37500000       0.59850000
    17  C          0.86190000       0.00840000       0.82630000
    18  C          0.63810000       0.50840000       0.67370000
    19  C          0.13810000      -0.00840000       0.17370000
    20  C          0.36190000       0.49160000       0.32630000
    21  H          0.94400000       0.24800000       0.78500000
    22  H          0.55600000       0.74800000       0.71500000
    23  H          0.05600000       0.75200000       0.21500000
    24  H          0.44400000       0.25200000       0.28500000
    25  H          0.21100000       0.37000000       0.03900000
    26  H          0.28900000       0.87000000       0.46100000
    27  H          0.78900000       0.63000000       0.96100000
    28  H          0.71100000       0.13000000       0.53900000
    29  H          0.79000000       0.97900000       0.76300000
    30  H          0.71000000       0.47900000       0.73700000
    31  H          0.21000000       0.02100000       0.23700000
    32  H          0.29000000       0.52100000       0.26300000
    33  O          0.12460000       0.36680000       0.93730000
    34  O          0.37540000       0.86680000       0.56270000
    35  O          0.87540000       0.63320000       0.06270000
    36  O          0.62460000       0.13320000       0.43730000
    37  O          0.22310000       0.27620000       0.11540000
    38  O          0.27690000       0.77620000       0.38460000
    39  O          0.77690000       0.72380000       0.88460000
    40  O          0.72310000       0.22380000       0.61540000
    41  C          0.68450000       0.23580000       0.09890000
    42  C          0.81550000       0.73580000       0.40110000
    43  C          0.31550000       0.76420000       0.90110000
    44  C          0.18450000       0.26420000       0.59890000
    45  C          0.60680000       0.23110000       0.00130000
    46  C          0.89320000       0.73110000       0.49870000
    47  C          0.39320000       0.76890000      -0.00130000
    48  C          0.10680000       0.26890000       0.50130000
    49  C          0.50930000       0.07460000       0.96760000
    50  C         -0.00930000       0.57460000       0.53240000
    51  C          0.49070000       0.92540000       0.03240000
    52  C          0.00930000       0.42540000       0.46760000
    53  C          0.43100000       0.06410000       0.87200000
    54  C          0.06900000       0.56410000       0.62800000
    55  C          0.56900000       0.93590000       0.12800000
    56  C          0.93100000       0.43590000       0.37200000
    57  C          0.66740000       0.09430000       0.15930000
    58  C          0.83260000       0.59430000       0.34070000
    59  C          0.33260000       0.90570000       0.84070000
    60  C          0.16740000       0.40570000       0.65930000
    61  H          0.76100000       0.32700000       0.11700000
    62  H          0.73900000       0.82700000       0.38300000
    63  H          0.23900000       0.67300000       0.88300000
    64  H          0.26100000       0.17300000       0.61700000
    65  H          0.54100000       0.29700000       0.86300000
    66  H          0.95900000       0.79700000       0.63700000
    67  H          0.45900000       0.70300000       0.13700000
    68  H          0.04100000       0.20300000       0.36300000
    69  H          0.72900000       0.12700000       0.22300000
    70  H          0.77100000       0.62700000       0.27700000
    71  H          0.27100000       0.87300000       0.77700000
    72  H          0.22900000       0.37300000       0.72300000
    73  O          0.62880000       0.36810000       0.94470000
    74  O          0.87120000       0.86810000       0.55530000
    75  O          0.37120000       0.63190000       0.05530000
    76  O          0.12880000       0.13190000       0.44470000
    77  O          0.44500000       0.19620000       0.81020000
    78  O          0.05500000       0.69620000       0.68980000
    79  O          0.55500000       0.80380000       0.18980000
    80  O          0.94500000       0.30380000       0.31020000
