data_DHNAPH05
_symmetry_space_group_name_H-M    'P1'
_symmetry_Int_Tables_number       1
loop_
_symmetry_equiv_pos_site_id
_symmetry_equiv_pos_as_xyz
1 x,y,z
_cell_length_a                   3.7434
_cell_length_b                   7.6228
_cell_length_c                   14.54915
_cell_angle_alpha                90.0
_cell_angle_beta                 97.71
_cell_angle_gamma                90.0
loop_
_atom_site_label
_atom_site_type_symbol
_atom_site_fract_x
_atom_site_fract_y
_atom_site_fract_z
     1  C          0.84510000       0.15640000       0.14500000
     2  C          0.65490000       0.65640000       0.35500000
     3  C          0.15490000       0.84360000       0.85500000
     4  C          0.34510000       0.34360000       0.64500000
     5  C         -0.01530000      -0.01340000       0.12860000
     6  C          0.51530000       0.48660000       0.37140000
     7  C          0.01530000       0.01340000       0.87140000
     8  C          0.48470000       0.51340000       0.62860000
     9  C          0.04210000       0.93910000       0.03650000
    10  C          0.45790000       0.43910000       0.46350000
    11  C         -0.04210000       0.06090000       0.96350000
    12  C          0.54210000       0.56090000       0.53650000
    13  C          0.18200000       0.77060000       0.01760000
    14  C          0.31800000       0.27060000       0.48240000
    15  C          0.81800000       0.22940000       0.98240000
    16  C          0.68200000       0.72940000       0.51760000
    17  C          0.76520000       0.27250000       0.07580000
    18  C          0.73480000       0.77250000       0.42420000
    19  C          0.23480000       0.72750000       0.92420000
    20  C          0.26520000       0.22750000       0.57580000
    21  H          0.83200000       0.19400000       0.21100000
    22  H          0.66800000       0.69400000       0.28900000
    23  H          0.16800000       0.80600000       0.78900000
    24  H          0.33200000       0.30600000       0.71100000
    25  H          0.22800000       0.72900000       0.14300000
    26  H          0.27200000       0.22900000       0.35700000
    27  H          0.77200000       0.27100000       0.85700000
    28  H          0.72800000       0.77100000       0.64300000
    29  H          0.67500000       0.38800000       0.08700000
    30  H          0.82500000       0.88800000       0.41300000
    31  H          0.32500000       0.61200000       0.91300000
    32  H          0.17500000       0.11200000       0.58700000
    33  O          0.06090000       0.87840000       0.19750000
    34  O          0.43910000       0.37840000       0.30250000
    35  O          0.93910000       0.12160000       0.80250000
    36  O          0.56090000       0.62160000       0.69750000
    37  O          0.26670000       0.65590000       0.08230000
    38  O          0.23330000       0.15590000       0.41770000
    39  O          0.73330000       0.34410000       0.91770000
    40  O          0.76670000       0.84410000       0.58230000
