data_DHNAPH17
_symmetry_space_group_name_H-M    'P1'
_symmetry_Int_Tables_number       1
loop_
_symmetry_equiv_pos_site_id
_symmetry_equiv_pos_as_xyz
1 x,y,z
_cell_length_a                   7.6641
_cell_length_b                   7.3041
_cell_length_c                   15.162
_cell_angle_alpha                90.0
_cell_angle_beta                 114.603
_cell_angle_gamma                90.0
loop_
_atom_site_label
_atom_site_type_symbol
_atom_site_fract_x
_atom_site_fract_y
_atom_site_fract_z
     1  C          0.96057000       0.13643000       0.09902000
     2  C          0.96057000       0.36357000       0.59902000
     3  C          0.03320000      -0.00323000       0.17650000
     4  C          0.03320000       0.50323000       0.67650000
     5  C          0.10463000       0.83617000       0.16352000
     6  C          0.10463000       0.66383000       0.66352000
     7  C          0.11663000       0.78997000       0.07132000
     8  C          0.11663000       0.71003000       0.57132000
     9  C          0.00463000       0.87937000       0.90128000
    10  C          0.00463000       0.62063000       0.40128000
    11  C          0.96627000       0.00783000       0.82418000
    12  C          0.96627000       0.49217000       0.32418000
    13  C          0.88927000       0.17163000       0.83718000
    14  C          0.88927000       0.32837000       0.33718000
    15  C          0.88757000       0.21713000       0.92768000
    16  C          0.88757000       0.28287000       0.42768000
    17  C          0.96217000       0.09173000       0.00442000
    18  C          0.96217000       0.40827000       0.50442000
    19  C          0.03883000       0.92007000      -0.00892000
    20  C          0.03883000       0.57993000       0.49108000
    21  O          0.89787000       0.28443000       0.11362000
    22  O          0.89787000       0.21557000       0.61362000
    23  O          0.18982000       0.64187000       0.06342000
    24  O          0.18982000       0.85813000       0.56342000
    25  O          0.11542000       0.72387000       0.88348000
    26  O          0.11542000       0.77613000       0.38348000
    27  O          0.81138000       0.37953000       0.93358000
    28  O          0.81138000       0.12047000       0.43358000
    29  H          0.02755000       0.03037000       0.24663000
    30  H          0.02755000       0.46963000       0.74663000
    31  H          0.16115000       0.73274000       0.22153000
    32  H          0.16115000       0.76726000       0.72153000
    33  H          0.97005000       0.97733000       0.75507000
    34  H          0.97005000       0.52267000       0.25507000
    35  H          0.82965000       0.26867000       0.77817000
    36  H          0.82965000       0.23133000       0.27817000
    37  H          0.16325000       0.64754000       0.94247000
    38  H          0.16325000       0.85246000       0.44247000
    39  H          0.81715000       0.39466000      -0.00034000
    40  H          0.81715000       0.10534000       0.49966000
    41  C          0.43947000       0.07993000       0.85718000
    42  C          0.43947000       0.42007000       0.35718000
    43  C          0.50767000       0.91587000       0.82488000
    44  C          0.50767000       0.58413000       0.32488000
    45  C          0.58807000       0.77257000       0.88448000
    46  C          0.58807000       0.72743000       0.38448000
    47  C          0.61207000       0.77457000       0.98618000
    48  C          0.61207000       0.72543000       0.48618000
    49  C          0.56027000       0.94127000       0.11622000
    50  C          0.56027000       0.55873000       0.61622000
    51  C          0.49367000       0.09683000       0.14932000
    52  C          0.49367000       0.40317000       0.64932000
    53  C          0.41527000       0.24373000       0.08852000
    54  C          0.41527000       0.25627000       0.58852000
    55  C          0.39897000       0.24153000      -0.00822000
    56  C          0.39897000       0.25847000       0.49178000
    57  C          0.46087000       0.08703000       0.95728000
    58  C          0.46087000       0.41297000       0.45728000
    59  C          0.54397000       0.93547000       0.02092000
    60  C          0.54397000       0.56453000       0.52092000
    61  O          0.36677000       0.20853000       0.79948000
    62  O          0.36677000       0.29147000       0.29948000
    63  O          0.68967000       0.64377000       0.04112000
    64  O          0.68967000       0.85623000       0.54112000
    65  O          0.63687000       0.80207000       0.17942000
    66  O          0.63687000       0.69793000       0.67942000
    67  O          0.31987000       0.38603000       0.93538000
    68  O          0.31987000       0.11397000       0.43538000
    69  H          0.48813000       0.91363000       0.74907000
    70  H          0.48813000       0.58637000       0.24907000
    71  H          0.63763000       0.65024000       0.86046000
    72  H          0.63763000       0.84976000       0.36046000
    73  H          0.50384000       0.09757000       0.22364000
    74  H          0.50384000       0.40243000       0.72364000
    75  H          0.36214000       0.36396000       0.11304000
    76  H          0.36214000       0.13604000       0.61304000
    77  H          0.67473000       0.70704000       0.14394000
    78  H          0.67473000       0.79296000       0.64394000
    79  H          0.31953000       0.35806000       0.87006000
    80  H          0.31953000       0.14194000       0.37006000
