data_DICNUY01
_symmetry_space_group_name_H-M    'P1'
_symmetry_Int_Tables_number       1
loop_
_symmetry_equiv_pos_site_id
_symmetry_equiv_pos_as_xyz
1 x,y,z
_cell_length_a                   18.411
_cell_length_b                   4.6303
_cell_length_c                   27.612
_cell_angle_alpha                90.0
_cell_angle_beta                 105.745
_cell_angle_gamma                90.0
loop_
_atom_site_label
_atom_site_type_symbol
_atom_site_fract_x
_atom_site_fract_y
_atom_site_fract_z
     1  O          0.71511000       0.30414000       0.41176700
     2  O          0.78489000       0.80414000       0.08823300
     3  O          0.28489000       0.69586000       0.58823300
     4  O          0.21511000       0.19586000       0.91176700
     5  O          0.90051000       0.07934000       0.33771700
     6  O          0.59949000       0.57934000       0.16228300
     7  O          0.09949000       0.92066000       0.66228300
     8  O          0.40051000       0.42066000       0.83771700
     9  N          0.80811000       0.19046000       0.37531900
    10  N          0.69189000       0.69046000       0.12468100
    11  N          0.19189000       0.80954000       0.62468100
    12  N          0.30811000       0.30954000       0.87531900
    13  C          0.80752000       0.68947000       0.47881000
    14  C          0.69248000       0.18947000       0.02119000
    15  C          0.19248000       0.31053000       0.52119000
    16  C          0.30752000       0.81053000       0.97881000
    17  C          0.85372000       0.89267000       0.50973100
    18  C          0.64628000       0.39267000       0.99026900
    19  C          0.14628000       0.10733000       0.49026900
    20  C          0.35372000       0.60733000       0.00973100
    21  C          0.92532000       0.95147000       0.50511000
    22  C          0.57468000       0.45147000      -0.00511000
    23  C          0.07468000       0.04853000       0.49489000
    24  C          0.42532000       0.54853000       0.00511000
    25  C          0.97482000       0.15857000       0.53731000
    26  C          0.52518000       0.65857000       0.96269000
    27  C          0.02518000       0.84143000       0.46269000
    28  C          0.47482000       0.34143000       0.03731000
    29  C          0.95152000       0.79607000       0.46851000
    30  C          0.54848000       0.29607000       0.03149000
    31  C          0.04848000       0.20393000       0.53149000
    32  C          0.45152000       0.70393000       0.96851000
    33  C          0.90422000       0.59387000       0.43741000
    34  C          0.59578000       0.09387000       0.06259000
    35  C          0.09578000       0.40613000       0.56259000
    36  C          0.40422000       0.90613000       0.93741000
    37  C          0.83132000       0.54487000       0.44281000
    38  C          0.66868000       0.04487000       0.05719000
    39  C          0.16868000       0.45513000       0.55719000
    40  C          0.33132000       0.95513000       0.94281000
    41  C          0.77962000       0.34007000       0.40961000
    42  C          0.72038000       0.84007000       0.09039000
    43  C          0.22038000       0.65993000       0.59039000
    44  C          0.27962000       0.15993000       0.90961000
    45  C          0.88062000       0.22407000       0.36851000
    46  C          0.61938000       0.72407000       0.13149000
    47  C          0.11938000       0.77593000       0.63149000
    48  C          0.38062000       0.27593000       0.86851000
    49  C          0.92862000       0.43837000       0.40101000
    50  C          0.57138000       0.93837000       0.09899000
    51  C          0.07138000       0.56163000       0.59899000
    52  C          0.42862000       0.06163000       0.90101000
    53  C          0.00002000       0.48756000       0.39627100
    54  C          0.49998000      -0.01244000       0.10372900
    55  C         -0.00002000       0.51244000       0.60372900
    56  C          0.50002000       0.01244000       0.89627100
    57  C          0.95282000       0.31597000       0.57351000
    58  C          0.54718000       0.81597000       0.92649000
    59  C          0.04718000       0.68403000       0.42649000
    60  C          0.45282000       0.18403000       0.07351000
    61  C          0.75622000      -0.00666000       0.34181000
    62  C          0.74378000       0.49334000       0.15819000
    63  C          0.24378000       0.00666000       0.65819000
    64  C          0.25622000       0.50666000       0.84181000
    65  C          0.70412000       0.15016000       0.29781000
    66  C          0.79588000       0.65016000       0.20219000
    67  C          0.29588000       0.84984000       0.70219000
    68  C          0.20412000       0.34984000       0.79781000
    69  C          0.63952000       0.96083000       0.26811000
    70  C          0.86048000       0.46083000       0.23189000
    71  C          0.36048000       0.03917000       0.73189000
    72  C          0.13952000       0.53917000       0.76811000
    73  C          0.58632000       0.87053000       0.29921000
    74  C          0.91368000       0.37053000       0.20079000
    75  C          0.41368000       0.12947000       0.70079000
    76  C          0.08632000       0.62947000       0.79921000
    77  H          0.72610000       0.88400000       0.35960000
    78  H          0.77390000       0.38400000       0.14040000
    79  H          0.27390000       0.11600000       0.64040000
    80  H          0.22610000       0.61600000       0.85960000
    81  H          0.75710000       0.64880000       0.48380000
    82  H          0.74290000       0.14880000       0.01620000
    83  H          0.24290000       0.35120000       0.51620000
    84  H          0.25710000       0.85120000       0.98380000
    85  H          0.83460000      -0.00610000       0.53500000
    86  H          0.66540000       0.49390000       0.96500000
    87  H          0.16540000       0.00610000       0.46500000
    88  H          0.33460000       0.50610000       0.03500000
    89  H          0.90230000       0.28580000       0.57720000
    90  H          0.59770000       0.78580000       0.92280000
    91  H          0.09770000       0.71420000       0.42280000
    92  H          0.40230000       0.21420000       0.07720000
    93  H          0.01810000       0.38440000       0.37120000
    94  H          0.48190000       0.88440000       0.12880000
    95  H          0.98190000       0.61560000       0.62880000
    96  H          0.51810000       0.11560000       0.87120000
    97  H          0.78400000       0.84240000       0.32860000
    98  H          0.71600000       0.34240000       0.17140000
    99  H          0.21600000       0.15760000       0.67140000
   100  H          0.28400000       0.65760000       0.82860000
   101  H          0.73370000       0.22670000       0.27660000
   102  H          0.76630000       0.72670000       0.22340000
   103  H          0.26630000       0.77330000       0.72340000
   104  H          0.23370000       0.27330000       0.77660000
   105  H          0.68350000       0.31500000       0.31110000
   106  H          0.81650000       0.81500000       0.18890000
   107  H          0.31650000       0.68500000       0.68890000
   108  H          0.18350000       0.18500000       0.81110000
   109  H          0.66190000       0.79060000       0.25670000
   110  H          0.83810000       0.29060000       0.24330000
   111  H          0.33810000       0.20940000       0.74330000
   112  H          0.16190000       0.70940000       0.75670000
   113  H          0.61210000       0.06010000       0.23820000
   114  H          0.88790000       0.56010000       0.26180000
   115  H          0.38790000       0.93990000       0.76180000
   116  H          0.11210000       0.43990000       0.73820000
   117  H          0.61520000       0.76620000       0.33040000
   118  H          0.88480000       0.26620000       0.16960000
   119  H          0.38480000       0.23380000       0.66960000
   120  H          0.11520000       0.73380000       0.83040000
   121  H          0.56530000       0.03560000       0.31190000
   122  H          0.93470000       0.53560000       0.18810000
   123  H          0.43470000       0.96440000       0.68810000
   124  H          0.06530000       0.46440000       0.81190000
   125  H          0.54730000       0.74620000       0.28280000
   126  H          0.95270000       0.24620000       0.21720000
   127  H          0.45270000       0.25380000       0.71720000
   128  H          0.04730000       0.75380000       0.78280000
   129  O          0.13171000       0.31045000       0.19123700
   130  O          0.36829000       0.81045000       0.30876300
   131  O          0.86829000       0.68955000       0.80876300
   132  O          0.63171000       0.18955000       0.69123700
   133  O          0.24581000       0.09544000       0.06868700
   134  O          0.25419000       0.59544000       0.43131300
   135  O          0.75419000       0.90456000       0.93131300
   136  O          0.74581000       0.40456000       0.56868700
   137  N          0.18941000       0.20826000       0.13044900
   138  N          0.31059000       0.70826000       0.36955100
   139  N          0.81059000       0.79174000       0.86955100
   140  N          0.68941000       0.29174000       0.63044900
   141  C          0.03862000       0.72637000       0.13131000
   142  C          0.46138000       0.22637000       0.36869000
   143  C          0.96138000       0.27363000       0.86869000
   144  C          0.53862000       0.77363000       0.63131000
   145  C         -0.00792000       0.92237000       0.10021000
   146  C          0.50792000       0.42237000       0.39979000
   147  C          0.00792000       0.07763000       0.89979000
   148  C          0.49208000       0.57763000       0.60021000
   149  C         -0.00482000       0.96017000       0.05111000
   150  C          0.50482000       0.46017000       0.44889000
   151  C          0.00482000       0.03983000       0.94889000
   152  C          0.49518000       0.53983000       0.55111000
   153  C          0.94608000       0.16827000       0.01751000
   154  C          0.55392000       0.66827000       0.48249000
   155  C          0.05392000       0.83173000       0.98249000
   156  C          0.44608000       0.33173000       0.51751000
   157  C          0.04722000       0.80277000       0.03281000
   158  C          0.45278000       0.30277000       0.46719000
   159  C          0.95278000       0.19723000       0.96719000
   160  C          0.54722000       0.69723000       0.53281000
   161  C          0.09452000       0.60097000       0.06501000
   162  C          0.40548000       0.10097000       0.43499000
   163  C          0.90548000       0.39903000       0.93499000
   164  C          0.59452000       0.89903000       0.56501000
   165  C          0.08962000       0.56807000       0.11481000
   166  C          0.41038000       0.06807000       0.38519000
   167  C          0.91038000       0.43193000       0.88519000
   168  C          0.58962000       0.93193000       0.61481000
   169  C          0.13652000       0.35577000       0.14891000
   170  C          0.36348000       0.85577000       0.35109000
   171  C          0.86348000       0.64423000       0.85109000
   172  C          0.63652000       0.14423000       0.64891000
   173  C          0.19862000       0.23537000       0.08161000
   174  C          0.30138000       0.73537000       0.41839000
   175  C          0.80138000       0.76463000       0.91839000
   176  C          0.69862000       0.26463000       0.58161000
   177  C          0.14672000       0.43877000       0.04821000
   178  C          0.35328000       0.93877000       0.45179000
   179  C          0.85328000       0.56123000       0.95179000
   180  C          0.64672000       0.06123000       0.54821000
   181  C          0.15212000       0.46777000      -0.00041000
   182  C          0.34788000       0.96777000       0.50041000
   183  C          0.84788000       0.53223000       0.00041000
   184  C          0.65212000       0.03223000       0.49959000
   185  C          0.89398000       0.33597000       0.03231000
   186  C          0.60602000       0.83597000       0.46769000
   187  C          0.10602000       0.66403000       0.96769000
   188  C          0.39398000       0.16403000       0.53231000
   189  C          0.23962000       0.00906000       0.16571000
   190  C          0.26038000       0.50906000       0.33429000
   191  C          0.76038000      -0.00906000       0.83429000
   192  C          0.73962000       0.49094000       0.66571000
   193  C          0.30542000       0.16616000       0.20091000
   194  C          0.19458000       0.66616000       0.29909000
   195  C          0.69458000       0.83384000       0.79909000
   196  C          0.80542000       0.33384000       0.70091000
   197  C          0.36412000       0.27337000       0.17521000
   198  C          0.13588000       0.77337000       0.32479000
   199  C          0.63588000       0.72663000       0.82479000
   200  C          0.86412000       0.22663000       0.67521000
   201  C          0.43202000       0.40857000       0.21251000
   202  C          0.06798000       0.90857000       0.28749000
   203  C          0.56798000       0.59143000       0.78749000
   204  C          0.93202000       0.09143000       0.71251000
   205  H          0.03500000       0.68790000       0.16560000
   206  H          0.46500000       0.18790000       0.33440000
   207  H          0.96500000       0.31210000       0.83440000
   208  H          0.53500000       0.81210000       0.66560000
   209  H          0.95560000       0.04700000       0.11290000
   210  H          0.54440000       0.54700000       0.38710000
   211  H          0.04440000       0.95300000       0.88710000
   212  H          0.45560000       0.45300000       0.61290000
   213  H          0.89260000       0.32110000       0.06710000
   214  H          0.60740000       0.82110000       0.43290000
   215  H          0.10740000       0.67890000       0.93290000
   216  H          0.39260000       0.17890000       0.56710000
   217  H          0.19000000       0.35730000       0.98880000
   218  H          0.31000000       0.85730000       0.51120000
   219  H          0.81000000       0.64270000       0.01120000
   220  H          0.69000000       0.14270000       0.48880000
   221  H          0.26140000       0.86560000       0.14940000
   222  H          0.23860000       0.36560000       0.35060000
   223  H          0.73860000       0.13440000       0.85060000
   224  H          0.76140000       0.63440000       0.64940000
   225  H          0.21340000       0.91010000       0.18720000
   226  H          0.28660000       0.41010000       0.31280000
   227  H          0.78660000       0.08990000       0.81280000
   228  H          0.71340000       0.58990000       0.68720000
   229  H          0.33160000       0.04200000       0.22950000
   230  H          0.16840000       0.54200000       0.27050000
   231  H          0.66840000       0.95800000       0.77050000
   232  H          0.83160000       0.45800000       0.72950000
   233  H          0.28760000       0.32980000       0.21620000
   234  H          0.21240000       0.82980000       0.28380000
   235  H          0.71240000       0.67020000       0.78380000
   236  H          0.78760000       0.17020000       0.71620000
   237  H          0.37980000       0.10610000       0.15850000
   238  H          0.12020000       0.60610000       0.34150000
   239  H          0.62020000       0.89390000       0.84150000
   240  H          0.87980000       0.39390000       0.65850000
   241  H          0.33960000       0.40320000       0.14880000
   242  H          0.16040000       0.90320000       0.35120000
   243  H          0.66040000       0.59680000       0.85120000
   244  H          0.83960000       0.09680000       0.64880000
   245  H          0.41620000       0.57450000       0.22660000
   246  H          0.08380000       0.07450000       0.27340000
   247  H          0.58380000       0.42550000       0.77340000
   248  H          0.91620000       0.92550000       0.72660000
   249  H          0.45640000       0.27710000       0.23650000
   250  H          0.04360000       0.77710000       0.26350000
   251  H          0.54360000       0.72290000       0.76350000
   252  H          0.95640000       0.22290000       0.73650000
   253  H          0.46750000       0.47360000       0.19350000
   254  H          0.03250000      -0.02640000       0.30650000
   255  H          0.53250000       0.52640000       0.80650000
   256  H          0.96750000       0.02640000       0.69350000
