data_DICNUY02
_symmetry_space_group_name_H-M    'P1'
_symmetry_Int_Tables_number       1
loop_
_symmetry_equiv_pos_site_id
_symmetry_equiv_pos_as_xyz
1 x,y,z
_cell_length_a                   4.63365
_cell_length_b                   8.86671
_cell_length_c                   14.322715
_cell_angle_alpha                76.0204
_cell_angle_beta                 87.3175
_cell_angle_gamma                82.4414
loop_
_atom_site_label
_atom_site_type_symbol
_atom_site_fract_x
_atom_site_fract_y
_atom_site_fract_z
     1  O          0.70264000       0.28022000       0.86819130
     2  O          0.29736000       0.71978000       0.13180870
     3  O          0.01524000      -0.00132000       0.64949120
     4  O         -0.01524000       0.00132000       0.35050880
     5  N          0.85375000       0.13642000       0.76020140
     6  N          0.14625000       0.86358000       0.23979860
     7  C          0.71127000       0.65957000       0.93712000
     8  C          0.28873000       0.34043000       0.06288000
     9  H          0.83570000       0.62280000      -0.00640000
    10  H          0.16430000       0.37720000       0.00640000
    11  H          0.68800000       0.57140000       0.90920000
    12  H          0.31200000       0.42860000       0.09080000
    13  H          0.51990000       0.70500000       0.95630000
    14  H          0.48010000       0.29500000       0.04370000
    15  C          0.84996000       0.78267000       0.86320190
    16  C          0.15004000       0.21733000       0.13679810
    17  H          0.71510000       0.82610000       0.80890000
    18  H          0.28490000       0.17390000       0.19110000
    19  H          0.03010000       0.73270000       0.83760000
    20  H          0.96990000       0.26730000       0.16240000
    21  C          0.92356000       0.91497000       0.90387180
    22  C          0.07644000       0.08503000       0.09612820
    23  H          0.74270000       0.96440000       0.92940000
    24  H          0.25730000       0.03560000       0.07060000
    25  H          0.05700000       0.87080000       0.95840000
    26  H          0.94300000       0.12920000       0.04160000
    27  C          0.06366000       0.03993000       0.83202180
    28  C          0.93634000       0.96007000       0.16797820
    29  H          0.14490000       0.10850000       0.86660000
    30  H          0.85510000       0.89150000       0.13340000
    31  H          0.22640000      -0.01040000       0.79850000
    32  H          0.77360000       0.01040000       0.20150000
    33  C          0.67486000       0.25693000       0.78919190
    34  C          0.32514000       0.74307000       0.21080810
    35  C          0.45396000       0.34983000       0.72098180
    36  C          0.54604000       0.65017000       0.27901820
    37  C          0.26776000       0.46733000       0.74666180
    38  C          0.73224000       0.53267000       0.25333820
    39  H          0.28290000       0.48780000       0.80820000
    40  H          0.71710000       0.51220000       0.19180000
    41  C          0.05776000       0.55633000       0.68354180
    42  C          0.94224000       0.44367000       0.31645820
    43  H          0.93210000       0.63750000       0.70270000
    44  H          0.06790000       0.36250000       0.29730000
    45  C          0.02635000       0.52993000       0.59351180
    46  C          0.97365000       0.47007000       0.40648820
    47  C          0.19766000       0.37513000       0.47341170
    48  C          0.80234000       0.62487000       0.52658830
    49  C          0.21635000       0.40883000       0.56512180
    50  C          0.78365000       0.59117000       0.43487820
    51  C          0.43165000       0.31843000       0.62982170
    52  C          0.56835000       0.68157000       0.37017830
    53  C          0.62375000       0.19893000       0.60245170
    54  C          0.37625000       0.80107000       0.39754830
    55  C          0.84666000       0.10373000       0.66998180
    56  C          0.15334000       0.89627000       0.33001820
    57  C          0.39066000       0.25733000       0.45020180
    58  C          0.60934000       0.74267000       0.54979820
    59  H          0.37910000       0.23500000       0.38900000
    60  H          0.62090000       0.76500000       0.61100000
    61  C          0.60056000       0.17063000       0.51358170
    62  C          0.39944000       0.82937000       0.48641830
    63  H          0.73040000       0.09030000       0.49510000
    64  H          0.26960000       0.90970000       0.50490000
