data_DICNUY
_symmetry_space_group_name_H-M    'P1'
_symmetry_Int_Tables_number       1
loop_
_symmetry_equiv_pos_site_id
_symmetry_equiv_pos_as_xyz
1 x,y,z
_cell_length_a                   4.7341
_cell_length_b                   28.2334
_cell_length_c                   9.3961
_cell_angle_alpha                90.0
_cell_angle_beta                 110.861
_cell_angle_gamma                90.0
loop_
_atom_site_label
_atom_site_type_symbol
_atom_site_fract_x
_atom_site_fract_y
_atom_site_fract_z
     1  O          0.36733000       0.18151000       0.07623000
     2  O          0.63267000       0.68151000       0.42377000
     3  O          0.63267000       0.81849000       0.92377000
     4  O          0.36733000       0.31849000       0.57623000
     5  O          0.41593000       0.07361000       0.44203000
     6  O          0.58407000       0.57361000       0.05797000
     7  O          0.58407000       0.92639000       0.55797000
     8  O          0.41593000       0.42639000       0.94203000
     9  N          0.39672000       0.12811000       0.26124000
    10  N          0.60328000       0.62811000       0.23876000
    11  N          0.60328000       0.87189000       0.73876000
    12  N          0.39672000       0.37189000       0.76124000
    13  C          0.90791000       0.04601000       0.93276000
    14  C          0.09209000       0.54601000       0.56724000
    15  C          0.09209000       0.95399000       0.06724000
    16  C          0.90791000       0.45399000       0.43276000
    17  C          0.84611000       0.03221000       0.06404000
    18  C          0.15389000       0.53221000       0.43596000
    19  C          0.15389000       0.96779000       0.93596000
    20  C          0.84611000       0.46779000       0.56404000
    21  C          0.93602000       0.98679000       0.13404000
    22  C          0.06398000       0.48679000       0.36596000
    23  C          0.06398000       0.01321000       0.86596000
    24  C          0.93602000       0.51321000       0.63404000
    25  C          0.86661000       0.97539000       0.26214000
    26  C          0.13339000       0.47539000       0.23786000
    27  C          0.13339000       0.02461000       0.73786000
    28  C          0.86661000       0.52461000       0.76214000
    29  C          0.71801000       0.00661000       0.32414000
    30  C          0.28199000       0.50661000       0.17586000
    31  C          0.28199000       0.99339000       0.67586000
    32  C          0.71801000       0.49339000       0.82414000
    33  C          0.62971000       0.05051000       0.26064000
    34  C          0.37029000       0.55051000       0.23936000
    35  C          0.37029000       0.94949000       0.73936000
    36  C          0.62971000       0.44949000       0.76064000
    37  C          0.69441000       0.06401000       0.12964000
    38  C          0.30559000       0.56401000       0.37036000
    39  C          0.30559000       0.93599000       0.87036000
    40  C          0.69441000       0.43599000       0.62964000
    41  C          0.60451000       0.10881000       0.06484000
    42  C          0.39549000       0.60881000       0.43516000
    43  C          0.39549000       0.89119000       0.93516000
    44  C          0.60451000       0.39119000       0.56484000
    45  C          0.66799000       0.12171000       0.93705000
    46  C          0.33201000       0.62171000       0.56295000
    47  C          0.33201000       0.87829000       0.06295000
    48  C          0.66799000       0.37829000       0.43705000
    49  C          0.81369000       0.09061000       0.87206000
    50  C          0.18631000       0.59061000       0.62794000
    51  C          0.18631000       0.90939000       0.12794000
    52  C          0.81369000       0.40939000       0.37206000
    53  C          0.44951000       0.14231000       0.12934000
    54  C          0.55049000       0.64231000       0.37066000
    55  C          0.55049000       0.85769000       0.87066000
    56  C          0.44951000       0.35769000       0.62934000
    57  C          0.47361000       0.08371000       0.32825000
    58  C          0.52639000       0.58371000       0.17175000
    59  C          0.52639000       0.91629000       0.67175000
    60  C          0.47361000       0.41629000       0.82825000
    61  C          0.24509000       0.16261000       0.32825000
    62  C          0.75491000       0.66261000       0.17175000
    63  C          0.75491000       0.83739000       0.67175000
    64  C          0.24509000       0.33739000       0.82825000
    65  C          0.46508800       0.19932000       0.42835000
    66  C          0.53491200       0.69932000       0.07165000
    67  C          0.53491200       0.80068000       0.57165000
    68  C          0.46508800       0.30068000       0.92835000
    69  C          0.68558800       0.17972000       0.57105000
    70  C          0.31441200       0.67972000       0.92895000
    71  C          0.31441200       0.82028000       0.42895000
    72  C          0.68558800       0.32028000       0.07105000
    73  C          0.89588700       0.21762000       0.67046000
    74  C          0.10411300       0.71762000       0.82954000
    75  C          0.10411300       0.78238000       0.32954000
    76  C          0.89588700       0.28238000       0.17046000
    77  H          0.92491000       0.94499000       0.30924000
    78  H          0.07509000       0.44499000       0.19076000
    79  H          0.07509000       0.05501000       0.69076000
    80  H          0.92491000       0.55501000       0.80924000
    81  H          0.67701000      -0.00221000       0.41354000
    82  H          0.32299000       0.49779000       0.08646000
    83  H          0.32299000       0.00221000       0.58646000
    84  H          0.67701000       0.50221000       0.91354000
    85  H          0.61129000       0.15261000       0.89365000
    86  H          0.38871000       0.65261000       0.60635000
    87  H          0.38871000       0.84739000       0.10635000
    88  H          0.61129000       0.34739000       0.39365000
    89  H          0.85179000       0.10041000       0.78266000
    90  H          0.14821000       0.60041000       0.71734000
    91  H          0.14821000       0.89959000       0.21734000
    92  H          0.85179000       0.39959000       0.28266000
    93  H          0.09179000       0.17881000       0.24734000
    94  H          0.90821000       0.67881000       0.25266000
    95  H          0.90821000       0.82119000       0.75266000
    96  H          0.09179000       0.32119000       0.74734000
    97  H          0.15319000       0.14581000       0.38934000
    98  H          0.84681000       0.64581000       0.11066000
    99  H          0.84681000       0.85419000       0.61066000
   100  H          0.15319000       0.35419000       0.88934000
   101  H          0.34928800       0.22332000       0.45485000
   102  H          0.65071200       0.72332000       0.04515000
   103  H          0.65071200       0.77668000       0.54515000
   104  H          0.34928800       0.27668000       0.95485000
   105  H          0.57488800       0.21322000       0.37045000
   106  H          0.42511200       0.71322000       0.12955000
   107  H          0.42511200       0.78678000       0.62955000
   108  H          0.57488800       0.28678000       0.87045000
   109  H          0.57658800       0.16522000       0.62835000
   110  H          0.42341200       0.66522000       0.87165000
   111  H          0.42341200       0.83478000       0.37165000
   112  H          0.57658800       0.33478000       0.12835000
   113  H          0.80628800       0.15632000       0.54535000
   114  H          0.19371200       0.65632000       0.95465000
   115  H          0.19371200       0.84368000       0.45465000
   116  H          0.80628800       0.34368000       0.04535000
   117  H          0.03581300       0.20102000       0.75576000
   118  H         -0.03581300       0.70102000       0.74424000
   119  H         -0.03581300       0.79898000       0.24424000
   120  H          0.03581300       0.29898000       0.25576000
   121  H          0.77648700       0.23882000       0.70566000
   122  H          0.22351300       0.73882000       0.79434000
   123  H          0.22351300       0.76118000       0.29434000
   124  H          0.77648700       0.26118000       0.20566000
   125  H          0.00541300       0.23532000       0.61986000
   126  H         -0.00541300       0.73532000       0.88014000
   127  H         -0.00541300       0.76468000       0.38014000
   128  H          0.00541300       0.26468000       0.11986000
