data_DIKTAT02
_symmetry_space_group_name_H-M    'P1'
_symmetry_Int_Tables_number       1
loop_
_symmetry_equiv_pos_site_id
_symmetry_equiv_pos_as_xyz
1 x,y,z
_cell_length_a                   7.207717
_cell_length_b                   4.15431
_cell_length_c                   23.3176
_cell_angle_alpha                90.0
_cell_angle_beta                 90.3144
_cell_angle_gamma                90.0
loop_
_atom_site_label
_atom_site_type_symbol
_atom_site_fract_x
_atom_site_fract_y
_atom_site_fract_z
     1  I          0.63889400       0.86627120       0.30840218
     2  I          0.36110600       0.36627120       0.19159782
     3  I          0.36110600       0.13372880       0.69159782
     4  I          0.63889400       0.63372880       0.80840218
     5  C          0.87651000       0.72101700       0.35343000
     6  C          0.12349000       0.22101700       0.14657000
     7  C          0.12349000       0.27898300       0.64657000
     8  C          0.87651000       0.77898300       0.85343000
     9  N          0.41388000       0.55741600       0.49052000
    10  N          0.58612000       0.05741600       0.00948000
    11  N          0.58612000       0.44258400       0.50948000
    12  N          0.41388000       0.94258400       0.99052000
    13  C          0.01129000       0.54241700       0.32503000
    14  C         -0.01129000       0.04241700       0.17497000
    15  C         -0.01129000       0.45758300       0.67497000
    16  C          0.01129000       0.95758300       0.82503000
    17  H         -0.00650000       0.48050000       0.28610000
    18  H          0.00650000      -0.01950000       0.21390000
    19  H          0.00650000       0.51950000       0.71390000
    20  H         -0.00650000       0.01950000       0.78610000
    21  C          0.17249000       0.45581900       0.35453000
    22  C          0.82751000       0.95581900       0.14547000
    23  C          0.82751000       0.54418100       0.64547000
    24  C          0.17249000       0.04418100       0.85453000
    25  H          0.26490000       0.33350000       0.33550000
    26  H          0.73510000       0.83350000       0.16450000
    27  H          0.73510000       0.66650000       0.66450000
    28  H          0.26490000       0.16650000       0.83550000
    29  C          0.19989000       0.54471800       0.41103000
    30  C          0.80011000       0.04471800       0.08897000
    31  C          0.80011000       0.45528200       0.58897000
    32  C          0.19989000       0.95528200       0.91103000
    33  C          0.06241000       0.72421900       0.43933000
    34  C          0.93759000       0.22421900       0.06067000
    35  C          0.93759000       0.27578100       0.56067000
    36  C          0.06241000       0.77578100       0.93933000
    37  H          0.08030000       0.78670000       0.47810000
    38  H          0.91970000       0.28670000       0.02190000
    39  H          0.91970000       0.21330000       0.52190000
    40  H          0.08030000       0.71330000       0.97810000
    41  C          0.90079000       0.81021800       0.41053000
    42  C          0.09921000       0.31021800       0.08947000
    43  C          0.09921000       0.18978200       0.58947000
    44  C          0.90079000       0.68978200       0.91053000
    45  H          0.80720000       0.92940000       0.42960000
    46  H          0.19280000       0.42940000       0.07040000
    47  H          0.19280000       0.07060000       0.57040000
    48  H          0.80720000       0.57060000       0.92960000
    49  C          0.37261000       0.45831900       0.44033000
    50  C          0.62739000       0.95831900       0.05967000
    51  C          0.62739000       0.54168100       0.55967000
    52  C          0.37261000       0.04168100       0.94033000
    53  H          0.45790000       0.32210000       0.42110000
    54  H          0.54210000       0.82210000       0.07890000
    55  H          0.54210000       0.67790000       0.57890000
    56  H          0.45790000       0.17790000       0.92110000
