data_DIKTAT
_symmetry_space_group_name_H-M    'P1'
_symmetry_Int_Tables_number       1
loop_
_symmetry_equiv_pos_site_id
_symmetry_equiv_pos_as_xyz
1 x,y,z
_cell_length_a                   11.8542
_cell_length_b                   7.730813
_cell_length_c                   7.682713
_cell_angle_alpha                90.0
_cell_angle_beta                 92.4073
_cell_angle_gamma                90.0
loop_
_atom_site_label
_atom_site_type_symbol
_atom_site_fract_x
_atom_site_fract_y
_atom_site_fract_z
     1  I          0.11470415       0.42460200       0.66076800
     2  I          0.88529585       0.92460200       0.83923200
     3  I          0.88529585       0.57539800       0.33923200
     4  I          0.11470415       0.07539800       0.16076800
     5  N          0.47872000       0.47823000       0.41573000
     6  N          0.52128000       0.97823000       0.08427000
     7  N          0.52128000       0.52177000       0.58427000
     8  N          0.47872000       0.02177000       0.91573000
     9  C          0.20622000       0.47273000       0.89497000
    10  C          0.79378000       0.97273000       0.60503000
    11  C          0.79378000       0.52727000       0.10503000
    12  C          0.20622000       0.02727000       0.39497000
    13  C          0.15652000       0.56693000       0.02524000
    14  C          0.84348000       0.06693000       0.47476000
    15  C          0.84348000       0.43307000       0.97476000
    16  C          0.15652000       0.93307000       0.52524000
    17  H          0.08250000       0.61250000       0.00730000
    18  H          0.91750000       0.11250000       0.49270000
    19  H          0.91750000       0.38750000      -0.00730000
    20  H          0.08250000       0.88750000       0.50730000
    21  C          0.21672000       0.59373000       0.18223000
    22  C          0.78328000       0.09373000       0.31777000
    23  C          0.78328000       0.40627000       0.81777000
    24  C          0.21672000       0.90627000       0.68223000
    25  H          0.18370000       0.65890000       0.27170000
    26  H          0.81630000       0.15890000       0.22830000
    27  H          0.81630000       0.34110000       0.72830000
    28  H          0.18370000       0.84110000       0.77170000
    29  C          0.32512000       0.52563000       0.20953000
    30  C          0.67488000       0.02563000       0.29047000
    31  C          0.67488000       0.47437000       0.79047000
    32  C          0.32512000       0.97437000       0.70953000
    33  C          0.37322000       0.43203000       0.07634000
    34  C          0.62678000       0.93203000       0.42366000
    35  C          0.62678000       0.56797000       0.92366000
    36  C          0.37322000       0.06797000       0.57634000
    37  H          0.44690000       0.38530000       0.09400000
    38  H          0.55310000       0.88530000       0.40600000
    39  H          0.55310000       0.61470000       0.90600000
    40  H          0.44690000       0.11470000       0.59400000
    41  C          0.31482000       0.40643000       0.91856000
    42  C          0.68518000       0.90643000       0.58144000
    43  C          0.68518000       0.59357000       0.08144000
    44  C          0.31482000       0.09357000       0.41856000
    45  H          0.34850000       0.34420000       0.82760000
    46  H          0.65150000       0.84420000       0.67240000
    47  H          0.65150000       0.65580000       0.17240000
    48  H          0.34850000       0.15580000       0.32760000
    49  C          0.38532000       0.55363000       0.37874000
    50  C          0.61468000       0.05363000       0.12126000
    51  C          0.61468000       0.44637000       0.62126000
    52  C          0.38532000       0.94637000       0.87874000
    53  H          0.35390000       0.62900000       0.46150000
    54  H          0.64610000       0.12900000       0.03850000
    55  H          0.64610000       0.37100000       0.53850000
    56  H          0.35390000       0.87100000       0.96150000
