data_DIKTAT01
_symmetry_space_group_name_H-M    'P1'
_symmetry_Int_Tables_number       1
loop_
_symmetry_equiv_pos_site_id
_symmetry_equiv_pos_as_xyz
1 x,y,z
_cell_length_a                   8.430317
_cell_length_b                   5.645312
_cell_length_c                   15.2483
_cell_angle_alpha                90.0
_cell_angle_beta                 104.3463
_cell_angle_gamma                90.0
loop_
_atom_site_label
_atom_site_type_symbol
_atom_site_fract_x
_atom_site_fract_y
_atom_site_fract_z
     1  I          0.14291300       0.16954500       0.30639319
     2  I          0.35708700       0.66954500       0.19360681
     3  I          0.85708700       0.83045500       0.69360681
     4  I          0.64291300       0.33045500       0.80639319
     5  N          0.57384000       0.53027000       0.48842000
     6  N          0.92616000       0.03027000       0.01158000
     7  N          0.42616000       0.46973000       0.51158000
     8  N          0.07384000       0.96973000       0.98842000
     9  C          0.95115000       0.02317000       0.35313000
    10  C          0.54885000       0.52317000       0.14687000
    11  C          0.04885000      -0.02317000       0.64687000
    12  C          0.45115000       0.47683000       0.85313000
    13  C          0.80415000       0.14037000       0.33773000
    14  C          0.69585000       0.64037000       0.16227000
    15  C          0.19585000       0.85963000       0.66227000
    16  C          0.30415000       0.35963000       0.83773000
    17  C          0.67805000       0.04327000       0.36953000
    18  C          0.82195000       0.54327000       0.13047000
    19  C          0.32195000       0.95673000       0.63047000
    20  C          0.17805000       0.45673000       0.86953000
    21  C          0.69825000       0.82837000       0.41573000
    22  C          0.80175000       0.32837000       0.08427000
    23  C          0.30175000       0.17163000       0.58427000
    24  C          0.19825000       0.67163000       0.91573000
    25  C          0.84865000       0.71217000       0.43073000
    26  C          0.65135000       0.21217000       0.06927000
    27  C          0.15135000       0.28783000       0.56927000
    28  C          0.34865000       0.78783000       0.93073000
    29  C          0.97625000       0.80647000       0.40033000
    30  C          0.52375000       0.30647000       0.09967000
    31  C          0.02375000       0.19353000       0.59967000
    32  C          0.47625000       0.69353000       0.90033000
    33  C          0.56075000       0.72747000       0.44653000
    34  C          0.93925000       0.22747000       0.05347000
    35  C          0.43925000       0.27253000       0.55347000
    36  C          0.06075000       0.77253000       0.94653000
    37  H          0.78900000       0.28620000       0.30570000
    38  H          0.71100000       0.78620000       0.19430000
    39  H          0.21100000       0.71380000       0.69430000
    40  H          0.28900000       0.21380000       0.80570000
    41  H          0.57640000       0.12440000       0.35960000
    42  H          0.92360000       0.62440000       0.14040000
    43  H          0.42360000       0.87560000       0.64040000
    44  H          0.07640000       0.37560000       0.85960000
    45  H          0.86330000       0.56560000       0.46230000
    46  H          0.63670000       0.06560000       0.03770000
    47  H          0.13670000       0.43440000       0.53770000
    48  H          0.36330000       0.93440000       0.96230000
    49  H          0.07860000       0.72710000       0.41090000
    50  H          0.42140000       0.22710000       0.08910000
    51  H          0.92140000       0.27290000       0.58910000
    52  H          0.57860000       0.77290000       0.91090000
    53  H          0.45980000       0.81090000       0.43480000
    54  H          0.04020000       0.31090000       0.06520000
    55  H          0.54020000       0.18910000       0.56520000
    56  H          0.95980000       0.68910000       0.93480000
