data_DIPGIS10
_symmetry_space_group_name_H-M    'P1'
_symmetry_Int_Tables_number       1
loop_
_symmetry_equiv_pos_site_id
_symmetry_equiv_pos_as_xyz
1 x,y,z
_cell_length_a                   17.3323
_cell_length_b                   7.3512
_cell_length_c                   13.2471
_cell_angle_alpha                90.0
_cell_angle_beta                 109.561
_cell_angle_gamma                90.0
loop_
_atom_site_label
_atom_site_type_symbol
_atom_site_fract_x
_atom_site_fract_y
_atom_site_fract_z
     1  N          0.94172000       0.23754000       0.31222000
     2  N          0.05828000       0.73754000       0.18778000
     3  N          0.05828000       0.76246000       0.68778000
     4  N          0.94172000       0.26246000       0.81222000
     5  N          0.01242000       0.31055000       0.33652000
     6  N          0.98758000       0.81055000       0.16348000
     7  N          0.98758000       0.68945000       0.66348000
     8  N          0.01242000       0.18945000       0.83652000
     9  N          0.05932000       0.33654000       0.44222000
    10  N          0.94068000       0.83654000       0.05778000
    11  N          0.94068000       0.66346000       0.55778000
    12  N          0.05932000       0.16346000       0.94222000
    13  C          0.14133000       0.40928000       0.45804000
    14  C          0.85867000       0.90928000       0.04196000
    15  C          0.85867000       0.59072000       0.54196000
    16  C          0.14133000       0.09072000       0.95804000
    17  C          0.03862000       0.28975000       0.52993000
    18  C          0.96138000       0.78975000       0.97007000
    19  C          0.96138000       0.71025000       0.47007000
    20  C          0.03862000       0.21025000       0.02993000
    21  O          0.08011000       0.31544000       0.62092000
    22  O          0.91989000       0.81544000       0.87908000
    23  O          0.91989000       0.68456000       0.37908000
    24  O          0.08011000       0.18456000       0.12092000
    25  N          0.96122000       0.20964000       0.49882000
    26  N          0.03878000       0.70964000       0.00118000
    27  N          0.03878000       0.79036000       0.50118000
    28  N          0.96122000       0.29036000      -0.00118000
    29  C          0.91842000       0.13965000       0.55963000
    30  C          0.08158000       0.63965000       0.94037000
    31  C          0.08158000       0.86035000       0.44037000
    32  C          0.91842000       0.36035000       0.05963000
    33  N          0.84822000       0.07394000       0.49942000
    34  N          0.15178000       0.57394000       0.00058000
    35  N          0.15178000       0.92606000       0.50058000
    36  N          0.84822000       0.42606000      -0.00058000
    37  C          0.84382000       0.10134000       0.39532000
    38  C          0.15618000       0.60134000       0.10468000
    39  C          0.15618000       0.89866000       0.60468000
    40  C          0.84382000       0.39866000       0.89532000
    41  C          0.77272000       0.04095000       0.30353000
    42  C          0.22728000       0.54095000       0.19647000
    43  C          0.22728000       0.95905000       0.69647000
    44  C          0.77272000       0.45905000       0.80353000
    45  N          0.71112000       0.96445000       0.32703000
    46  N          0.28888000       0.46445000       0.17297000
    47  N          0.28888000       0.03555000       0.67297000
    48  N          0.71112000       0.53555000       0.82703000
    49  O          0.77341000       0.06294000       0.21212000
    50  O          0.22659000       0.56294000       0.28788000
    51  O          0.22659000       0.93706000       0.78788000
    52  O          0.77341000       0.43706000       0.71212000
    53  C          0.91412000       0.18444000       0.39322000
    54  C          0.08588000       0.68444000       0.10678000
    55  C          0.08588000       0.81556000       0.60678000
    56  C          0.91412000       0.31556000       0.89322000
    57  H          0.18030000       0.32570000       0.48330000
    58  H          0.81970000       0.82570000       0.01670000
    59  H          0.81970000       0.67430000       0.51670000
    60  H          0.18030000       0.17430000       0.98330000
    61  H          0.14030000       0.45170000       0.38440000
    62  H          0.85970000       0.95170000       0.11560000
    63  H          0.85970000       0.54830000       0.61560000
    64  H          0.14030000       0.04830000       0.88440000
    65  H          0.15430000       0.49770000       0.51340000
    66  H          0.84570000      -0.00230000       0.98660000
    67  H          0.84570000       0.50230000       0.48660000
    68  H          0.15430000       0.00230000       0.01340000
    69  H          0.94120000       0.14550000       0.63730000
    70  H          0.05880000       0.64550000       0.86270000
    71  H          0.05880000       0.85450000       0.36270000
    72  H          0.94120000       0.35450000       0.13730000
    73  H          0.71320000       0.95040000       0.39530000
    74  H          0.28680000       0.45040000       0.10470000
    75  H          0.28680000       0.04960000       0.60470000
    76  H          0.71320000       0.54960000       0.89530000
    77  H          0.66020000       0.92140000       0.26930000
    78  H          0.33980000       0.42140000       0.23070000
    79  H          0.33980000       0.07860000       0.73070000
    80  H          0.66020000       0.57860000       0.76930000
    81  N          0.41531000       0.64286000      -0.00932000
    82  N          0.58469000       0.14286000       0.50932000
    83  N          0.58469000       0.35714000       0.00932000
    84  N          0.41531000       0.85714000       0.49068000
    85  N          0.34622000       0.56566000       0.95328000
    86  N          0.65378000       0.06566000       0.54672000
    87  N          0.65378000       0.43434000       0.04672000
    88  N          0.34622000       0.93434000       0.45328000
    89  N          0.31071000       0.54006000       0.84458000
    90  N          0.68929000       0.04006000       0.65542000
    91  N          0.68929000       0.45994000       0.15542000
    92  N          0.31071000       0.95994000       0.34458000
    93  C          0.23122000       0.44944000       0.81157000
    94  C          0.76878000       0.94944000       0.68843000
    95  C          0.76878000       0.55056000       0.18843000
    96  C          0.23122000       0.05056000       0.31157000
    97  C          0.34242000       0.59046000       0.76688000
    98  C          0.65758000       0.09046000       0.73312000
    99  C          0.65758000       0.40954000       0.23312000
   100  C          0.34242000       0.90954000       0.26688000
   101  O          0.30821000       0.57127000       0.67208000
   102  O          0.69179000       0.07127000       0.82792000
   103  O          0.69179000       0.42873000       0.32792000
   104  O          0.30821000       0.92873000       0.17208000
   105  N          0.41861000       0.67176000       0.81148000
   106  N          0.58139000       0.17176000       0.68852000
   107  N          0.58139000       0.32824000       0.18852000
   108  N          0.41861000       0.82824000       0.31148000
   109  C          0.47162000       0.74035000       0.76427000
   110  C          0.52838000       0.24035000       0.73573000
   111  C          0.52838000       0.25965000       0.23573000
   112  C          0.47162000       0.75965000       0.26427000
   113  N          0.53671000       0.80806000       0.83638000
   114  N          0.46329000       0.30806000       0.66362000
   115  N          0.46329000       0.19194000       0.16362000
   116  N          0.53671000       0.69194000       0.33638000
   117  C          0.52712000       0.78546000       0.93478000
   118  C          0.47288000       0.28546000       0.56522000
   119  C          0.47288000       0.21454000       0.06522000
   120  C          0.52712000       0.71454000       0.43478000
   121  C          0.58992000       0.84726000       0.03432000
   122  C          0.41008000       0.34726000       0.46568000
   123  C          0.41008000       0.15274000       0.96568000
   124  C          0.58992000       0.65274000       0.53432000
   125  N          0.65272000       0.93396000       0.01992000
   126  N          0.34728000       0.43396000       0.48008000
   127  N          0.34728000       0.06604000       0.98008000
   128  N          0.65272000       0.56604000       0.51992000
   129  O          0.58371000       0.81807000       0.12312000
   130  O          0.41629000       0.31807000       0.37688000
   131  O          0.41629000       0.18193000       0.87688000
   132  O          0.58371000       0.68193000       0.62312000
   133  C          0.45372000       0.69856000       0.92088000
   134  C          0.54628000       0.19856000       0.57912000
   135  C          0.54628000       0.30144000       0.07912000
   136  C          0.45372000       0.80144000       0.42088000
   137  H          0.18830000       0.54320000       0.76760000
   138  H          0.81170000       0.04320000       0.73240000
   139  H          0.81170000       0.45680000       0.23240000
   140  H          0.18830000       0.95680000       0.26760000
   141  H          0.23130000       0.35530000       0.76960000
   142  H          0.76870000       0.85530000       0.73040000
   143  H          0.76870000       0.64470000       0.23040000
   144  H          0.23130000       0.14470000       0.26960000
   145  H          0.21830000       0.41130000       0.87460000
   146  H          0.78170000       0.91130000       0.62540000
   147  H          0.78170000       0.58870000       0.12540000
   148  H          0.21830000       0.08870000       0.37460000
   149  H          0.45820000       0.73060000       0.68780000
   150  H          0.54180000       0.23060000       0.81220000
   151  H          0.54180000       0.26940000       0.31220000
   152  H          0.45820000       0.76940000       0.18780000
   153  H          0.65220000       0.95540000       0.94870000
   154  H          0.34780000       0.45540000       0.55130000
   155  H          0.34780000       0.04460000       0.05130000
   156  H          0.65220000       0.54460000       0.44870000
   157  H          0.69320000       0.97240000       0.08130000
   158  H          0.30680000       0.47240000       0.41870000
   159  H          0.30680000       0.02760000       0.91870000
   160  H          0.69320000       0.52760000       0.58130000
