data_DIPGIS13
_symmetry_space_group_name_H-M    'P1'
_symmetry_Int_Tables_number       1
loop_
_symmetry_equiv_pos_site_id
_symmetry_equiv_pos_as_xyz
1 x,y,z
_cell_length_a                   8.5002
_cell_length_b                   10.0043
_cell_length_c                   11.3093
_cell_angle_alpha                99.2704
_cell_angle_beta                 108.8575
_cell_angle_gamma                109.1925
loop_
_atom_site_label
_atom_site_type_symbol
_atom_site_fract_x
_atom_site_fract_y
_atom_site_fract_z
     1  N          0.08864000       0.01343000       0.16393000
     2  N          0.91136000      -0.01343000       0.83607000
     3  N          0.95836000       0.26114000       0.18793000
     4  N          0.04164000       0.73886000       0.81207000
     5  N          0.20494000       0.84377000       0.21643000
     6  N          0.79506000       0.15623000       0.78357000
     7  O          0.00543000       0.37163000       0.39372000
     8  O         -0.00543000       0.62837000       0.60628000
     9  C          0.12664000       0.06563000       0.29333000
    10  C          0.87336000       0.93437000       0.70667000
    11  O          0.33613000       0.84087000       0.42772000
    12  O          0.66387000       0.15913000       0.57228000
    13  C          0.09714000       0.17493000       0.36223000
    14  C          0.90286000       0.82507000       0.63777000
    15  N          0.20784000       0.00453000       0.38492000
    16  N          0.79216000      -0.00453000       0.61508000
    17  N          0.12574000       0.90487000       0.12592000
    18  N          0.87426000       0.09513000       0.87408000
    19  C          0.25855000       0.89076000       0.34973000
    20  C          0.74145000       0.10924000       0.65027000
    21  N          0.15764000       0.17983000       0.49143000
    22  N          0.84236000       0.82017000       0.50857000
    23  C          0.22285000       0.08014000       0.50153000
    24  C          0.77715000       0.91986000       0.49847000
    25  H          0.27430000       0.06230000       0.58010000
    26  H          0.72570000       0.93770000       0.41990000
    27  C          0.01735000       0.27794000       0.31643000
    28  C         -0.01735000       0.72206000       0.68357000
    29  C          0.23945000       0.71796000       0.16023000
    30  C          0.76055000       0.28204000       0.83977000
    31  H          0.35600000       0.75480000       0.15530000
    32  H          0.64400000       0.24520000       0.84470000
    33  H          0.14620000       0.66370000       0.07390000
    34  H          0.85380000       0.33630000       0.92610000
    35  H          0.23860000       0.65380000       0.21480000
    36  H          0.76140000       0.34620000       0.78520000
    37  H          0.91360000       0.33030000       0.16030000
    38  H          0.08640000       0.66970000       0.83970000
    39  H          0.96960000       0.18630000       0.12530000
    40  H          0.03040000       0.81370000       0.87470000
    41  O          0.20503000       0.54143000       0.89088000
    42  O          0.79497000       0.45857000       0.10912000
    43  N          0.27204000       0.20493000       0.81727000
    44  N          0.72796000       0.79507000       0.18273000
    45  N          0.12124000       0.38744000       0.69197000
    46  N          0.87876000       0.61256000       0.30803000
    47  N          0.38274000       0.22943000       0.02933000
    48  N          0.61726000       0.77057000       0.97067000
    49  N          0.35484000       0.44943000       0.12333000
    50  N          0.64516000       0.55057000       0.87667000
    51  C          0.26614000       0.32893000       0.88527000
    52  C          0.73386000       0.67107000       0.11473000
    53  O          0.51573000       0.11503000       0.16632000
    54  O          0.48427000       0.88497000       0.83368000
    55  C          0.19394000       0.42844000       0.82107000
    56  C          0.80606000       0.57156000       0.17893000
    57  C          0.33264000       0.34613000       0.01643000
    58  C          0.66736000       0.65387000       0.98357000
    59  N          0.42954000       0.43923000       0.23613000
    60  N          0.57046000       0.56077000       0.76387000
    61  N          0.48744000       0.32613000       0.25073000
    62  N          0.51256000       0.67387000       0.74927000
    63  C          0.46844000       0.21484000       0.15193000
    64  C          0.53156000       0.78516000       0.84807000
    65  C          0.34405000       0.14864000       0.90707000
    66  C          0.65595000       0.85136000       0.09293000
    67  H          0.36560000       0.06390000       0.88910000
    68  H          0.63440000       0.93610000       0.11090000
    69  C          0.58175000       0.33444000       0.38833000
    70  C          0.41825000       0.66556000       0.61167000
    71  H          0.50050000       0.26310000       0.41250000
    72  H          0.49950000       0.73690000       0.58750000
    73  H          0.61900000       0.43220000       0.44390000
    74  H          0.38100000       0.56780000       0.55610000
    75  H          0.68670000       0.31340000       0.39790000
    76  H          0.31330000       0.68660000       0.60210000
    77  H          0.12540000       0.32040000       0.63070000
    78  H          0.87460000       0.67960000       0.36930000
    79  H          0.08240000       0.45140000       0.65670000
    80  H          0.91760000       0.54860000       0.34330000
