data_DIPGIS12
_symmetry_space_group_name_H-M    'P1'
_symmetry_Int_Tables_number       1
loop_
_symmetry_equiv_pos_site_id
_symmetry_equiv_pos_as_xyz
1 x,y,z
_cell_length_a                   6.82185
_cell_length_b                   7.48816
_cell_length_c                   15.630312
_cell_angle_alpha                90.0
_cell_angle_beta                 96.53401
_cell_angle_gamma                90.0
loop_
_atom_site_label
_atom_site_type_symbol
_atom_site_fract_x
_atom_site_fract_y
_atom_site_fract_z
     1  O          0.20017140       0.97090130       0.08293600
     2  O          0.29982860       0.47090130       0.41706400
     3  O          0.79982860       0.02909870       0.91706400
     4  O          0.70017140       0.52909870       0.58293600
     5  O          0.07052140       0.58934140       0.12664600
     6  O          0.42947860       0.08934140       0.37335400
     7  O          0.92947860       0.41065860       0.87335400
     8  O          0.57052140       0.91065860       0.62664600
     9  N          0.76133170       0.70438150       0.08838700
    10  N          0.73866830       0.20438150       0.41161300
    11  N          0.23866830       0.29561850       0.91161300
    12  N          0.26133170       0.79561850       0.58838700
    13  N          0.53233170       0.69626150       0.97711300
    14  N          0.96766830       0.19626150       0.52288700
    15  N          0.46766830       0.30373850       0.02288700
    16  N          0.03233170       0.80373850       0.47711300
    17  N          0.93562170       0.78651160       0.21534700
    18  N          0.56437830       0.28651160       0.28465300
    19  N          0.06437830       0.21348840       0.78465300
    20  N          0.43562170       0.71348840       0.71534700
    21  N          0.61526180       0.88878170       0.18966700
    22  N          0.88473820       0.38878170       0.31033300
    23  N          0.38473820       0.11121830       0.81033300
    24  N          0.11526180       0.61121830       0.68966700
    25  N          0.77729180       0.88269170       0.23916700
    26  N          0.72270820       0.38269170       0.26083300
    27  N          0.22270820       0.11730830       0.76083300
    28  N          0.27729180       0.61730830       0.73916700
    29  C          0.93662000       0.68360180       0.14273800
    30  C          0.56338000       0.18360180       0.35726200
    31  C          0.06338000       0.31639820       0.85726200
    32  C          0.43662000       0.81639820       0.64273800
    33  C          0.60342000       0.80290180       0.11159900
    34  C          0.89658000       0.30290180       0.38840100
    35  C          0.39658000       0.19709820       0.88840100
    36  C          0.10342000       0.69709820       0.61159900
    37  C          0.46222000       0.79474180       0.04130900
    38  C          0.03778000       0.29474180       0.45869100
    39  C          0.53778000       0.20525820       0.95869100
    40  C          0.96222000       0.70525820       0.54130900
    41  N          0.16224190       0.83935180       0.95109200
    42  N          0.33775810       0.33935180       0.54890800
    43  N          0.83775810       0.16064820       0.04890800
    44  N          0.66224190       0.66064820       0.45109200
    45  C          0.71082000       0.64342190       0.00641800
    46  C          0.78918000       0.14342190       0.49358200
    47  C          0.28918000       0.35657810      -0.00641800
    48  C          0.21082000       0.85657810       0.50641800
    49  H          0.79340000       0.57260000       0.97500000
    50  H          0.70660000       0.07260000       0.52500000
    51  H          0.20660000       0.42740000       0.02500000
    52  H          0.29340000       0.92740000       0.47500000
    53  C          0.11752000       0.79802000       0.27500900
    54  C          0.38248000       0.29802000       0.22499100
    55  C          0.88248000       0.20198000       0.72499100
    56  C          0.61752000       0.70198000       0.77500900
    57  H          0.14300000       0.68280000       0.30390000
    58  H          0.35700000       0.18280000       0.19610000
    59  H          0.85700000       0.31720000       0.69610000
    60  H          0.64300000       0.81720000       0.80390000
    61  H          0.10290000       0.89070000       0.31810000
    62  H          0.39710000       0.39070000       0.18190000
    63  H          0.89710000       0.10930000       0.68190000
    64  H          0.60290000       0.60930000       0.81810000
    65  H          0.22830000       0.82830000       0.24290000
    66  H          0.27170000       0.32830000       0.25710000
    67  H          0.77170000       0.17170000       0.75710000
    68  H          0.72830000       0.67170000       0.74290000
    69  C          0.26352000       0.87633180       0.02735900
    70  C          0.23648000       0.37633180       0.47264100
    71  C          0.73648000       0.12366820       0.97264100
    72  C          0.76352000       0.62366820       0.52735900
    73  H          0.22130000       0.77830000       0.91608800
    74  H          0.27870000       0.27830000       0.58391200
    75  H          0.77870000       0.22170000       0.08391200
    76  H          0.72130000       0.72170000       0.41608800
    77  H          0.04030000       0.88920000       0.93728900
    78  H          0.45970000       0.38920000       0.56271100
    79  H          0.95970000       0.11080000       0.06271100
    80  H          0.54030000       0.61080000       0.43728900
