data_DIRRAX
_symmetry_space_group_name_H-M    'P1'
_symmetry_Int_Tables_number       1
loop_
_symmetry_equiv_pos_site_id
_symmetry_equiv_pos_as_xyz
1 x,y,z
_cell_length_a                   11.4112
_cell_length_b                   13.8283
_cell_length_c                   15.1432
_cell_angle_alpha                90.0
_cell_angle_beta                 98.4501
_cell_angle_gamma                90.0
loop_
_atom_site_label
_atom_site_type_symbol
_atom_site_fract_x
_atom_site_fract_y
_atom_site_fract_z
     1  O          0.96583850       0.31738150       0.85753890
     2  O          0.53416150       0.81738150       0.64246110
     3  O          0.03416150       0.68261850       0.14246110
     4  O          0.46583850       0.18261850       0.35753890
     5  O          0.16614140       0.32529150       0.64955870
     6  O          0.33385860       0.82529150       0.85044130
     7  O          0.83385860       0.67470850       0.35044130
     8  O          0.66614140       0.17470850       0.14955870
     9  O          0.70167860       0.34570140       0.88106900
    10  O          0.79832140       0.84570140       0.61893100
    11  O          0.29832140       0.65429860       0.11893100
    12  O          0.20167860       0.15429860       0.38106900
    13  O          0.50744860       0.36067150       0.87546890
    14  O         -0.00744860       0.86067150       0.62453110
    15  O          0.49255140       0.63932850       0.12453110
    16  O          0.00744860       0.13932850       0.37546890
    17  N          0.79020840       0.32903140       0.72879870
    18  N          0.70979160       0.82903140       0.77120130
    19  N          0.20979160       0.67096860       0.27120130
    20  N          0.29020840       0.17096860       0.22879870
    21  N          0.87259850       0.33223130       0.67635880
    22  N          0.62740150       0.83223130       0.82364120
    23  N          0.12740150       0.66776870       0.32364120
    24  N          0.37259850       0.16776870       0.17635880
    25  C          0.98571810       0.33204160       0.70772850
    26  C          0.51428190       0.83204160       0.79227150
    27  C          0.01428190       0.66795840       0.29227150
    28  C          0.48571810       0.16795840       0.20772850
    29  C          0.03432000       0.32682170       0.80314840
    30  C          0.46568000       0.82682170       0.69685160
    31  C          0.96568000       0.67317830       0.19685160
    32  C          0.53432000       0.17317830       0.30314840
    33  C          0.06012000       0.33611190       0.63494840
    34  C          0.43988000       0.83611190       0.86505160
    35  C          0.93988000       0.66388810       0.36505160
    36  C          0.56012000       0.16388810       0.13494840
    37  C          0.16443000       0.33473000       0.83578000
    38  C          0.33557000       0.83473000       0.66422000
    39  C          0.83557000       0.66527000       0.16422000
    40  C          0.66443000       0.16527000       0.33578000
    41  C         -0.00063000       0.35234000       0.54218000
    42  C          0.50063000       0.85234000       0.95782000
    43  C          0.00063000       0.64766000       0.45782000
    44  C          0.49937000       0.14766000       0.04218000
    45  C          0.67171820       0.32602160       0.68877860
    46  C          0.82828180       0.82602160       0.81122140
    47  C          0.32828180       0.67397840       0.31122140
    48  C          0.17171820       0.17397840       0.18877860
    49  C          0.64338000       0.31532000       0.59670840
    50  C          0.85662000       0.81532000       0.90329160
    51  C          0.35662000       0.68468000       0.40329160
    52  C          0.14338000       0.18468000       0.09670840
    53  C          0.52758000       0.31142000       0.55738830
    54  C          0.97242000       0.81142000       0.94261170
    55  C          0.47242000       0.68858000       0.44261170
    56  C          0.02758000       0.18858000       0.05738830
    57  C          0.43658000       0.31842000       0.60703820
    58  C          0.06342000       0.81842000       0.89296180
    59  C          0.56342000       0.68158000       0.39296180
    60  C          0.93658000       0.18158000       0.10703820
    61  C          0.46268000       0.32884190       0.69781830
    62  C          0.03732000       0.82884190       0.80218170
    63  C          0.53732000       0.67115810       0.30218170
    64  C          0.96268000       0.17115810       0.19781830
    65  C          0.57963810       0.33364160       0.74072860
    66  C          0.92036190       0.83364160       0.75927140
    67  C          0.42036190       0.66635840       0.25927140
    68  C          0.07963810       0.16635840       0.24072860
    69  C          0.60174810       0.34620180       0.83749850
    70  C          0.89825190       0.84620180       0.66250150
    71  C          0.39825190       0.65379820       0.16250150
    72  C          0.10174810       0.15379820       0.33749850
    73  H          0.80880000       0.32871800       0.78758200
    74  H          0.69120000       0.82871800       0.71241800
    75  H          0.19120000       0.67128200       0.21241800
    76  H          0.30880000       0.17128200       0.28758200
    77  H          0.53570000       0.37320000       0.94080000
    78  H          0.96430000       0.87320000       0.55920000
    79  H          0.46430000       0.62680000       0.05920000
    80  H          0.03570000       0.12680000       0.44080000
    81  H          0.70648100       0.31061500       0.56368600
    82  H          0.79351900       0.81061500       0.93631400
    83  H          0.29351900       0.68938500       0.43631400
    84  H          0.20648100       0.18938500       0.06368600
    85  H          0.51380000       0.30141700       0.49388300
    86  H         -0.01380000       0.80141700       0.00611700
    87  H          0.48620000       0.69858300       0.50611700
    88  H          0.01380000       0.19858300      -0.00611700
    89  H          0.35680000       0.31311800       0.58188300
    90  H          0.14320000       0.81311800       0.91811700
    91  H          0.64320000       0.68688200       0.41811700
    92  H          0.85680000       0.18688200       0.08188300
    93  H          0.40380000       0.33301600       0.73308500
    94  H          0.09620000       0.83301600       0.76691500
    95  H          0.59620000       0.66698400       0.26691500
    96  H          0.90380000       0.16698400       0.23308500
    97  H          0.17630000       0.33620000       0.90280000
    98  H          0.32370000       0.83620000       0.59720000
    99  H          0.82370000       0.66380000       0.09720000
   100  H          0.67630000       0.16380000       0.40280000
   101  H          0.20120000       0.38420000       0.81288200
   102  H          0.29880000       0.88420000       0.68711800
   103  H          0.79880000       0.61580000       0.18711800
   104  H          0.70120000       0.11580000       0.31288200
   105  H          0.21130000       0.28120000       0.80880000
   106  H          0.28870000       0.78120000       0.69120000
   107  H          0.78870000       0.71880000       0.19120000
   108  H          0.71130000       0.21880000       0.30880000
   109  H          0.04830000       0.35520000       0.50380000
   110  H          0.45170000       0.85520000      -0.00380000
   111  H          0.95170000       0.64480000       0.49620000
   112  H          0.54830000       0.14480000       0.00380000
   113  H          0.93970000       0.30220000       0.52680000
   114  H          0.56030000       0.80220000       0.97320000
   115  H          0.06030000       0.69780000       0.47320000
   116  H          0.43970000       0.19780000       0.02680000
   117  H          0.95560000       0.41330000       0.54470000
   118  H          0.54440000       0.91330000       0.95530000
   119  H          0.04440000       0.58670000       0.45530000
   120  H          0.45560000       0.08670000       0.04470000
   121  O          0.30447850       0.40885160       0.06814120
   122  O          0.19552150       0.90885160       0.43185880
   123  O          0.69552150       0.59114840       0.93185880
   124  O          0.80447850       0.09114840       0.56814120
   125  O          0.09651840       0.42637190       0.27060160
   126  O          0.40348160       0.92637190       0.22939840
   127  O          0.90348160       0.57362810       0.72939840
   128  O          0.59651840       0.07362810       0.77060160
   129  O          0.56504870       0.38925140       0.04897100
   130  O          0.93495130       0.88925140       0.45102900
   131  O          0.43495130       0.61074860       0.95102900
   132  O          0.06504870       0.11074860       0.54897100
   133  O          0.75985860       0.38323150       0.05438110
   134  O          0.74014140       0.88323150       0.44561890
   135  O          0.24014140       0.61676850       0.94561890
   136  O          0.25985860       0.11676850       0.55438110
   137  N          0.47620850       0.41597140       0.19976130
   138  N          0.02379150       0.91597140       0.30023870
   139  N          0.52379150       0.58402860       0.80023870
   140  N          0.97620850       0.08402860       0.69976130
   141  N          0.39347850       0.41951130       0.25113120
   142  N          0.10652150       0.91951130       0.24886880
   143  N          0.60652150       0.58048870       0.74886880
   144  N          0.89347850       0.08048870       0.75113120
   145  C          0.28004810       0.42194170       0.21697160
   146  C          0.21995190       0.92194170       0.28302840
   147  C          0.71995190       0.57805830       0.78302840
   148  C          0.78004810       0.07805830       0.71697160
   149  C          0.23498000       0.42242190       0.12096170
   150  C          0.26502000       0.92242190       0.37903830
   151  C          0.76502000       0.57757810       0.87903830
   152  C          0.73498000       0.07757810       0.62096170
   153  C          0.20268000       0.42232000       0.28847190
   154  C          0.29732000       0.92232000       0.21152810
   155  C          0.79732000       0.57768000       0.71152810
   156  C          0.70268000       0.07768000       0.78847190
   157  C          0.10777000       0.44213000       0.08553000
   158  C          0.39223000       0.94213000       0.41447000
   159  C          0.89223000       0.55787000       0.91447000
   160  C          0.60777000       0.05787000       0.58553000
   161  C          0.25957000       0.41784000       0.38302000
   162  C          0.24043000       0.91784000       0.11698000
   163  C          0.74043000       0.58216000       0.61698000
   164  C          0.75957000       0.08216000       0.88302000
   165  C          0.59510830       0.41804160       0.24031140
   166  C          0.90489170       0.91804160       0.25968860
   167  C          0.40489170       0.58195840       0.75968860
   168  C          0.09510830       0.08195840       0.74031140
   169  C          0.62248000       0.43172000       0.33196160
   170  C          0.87752000       0.93172000       0.16803840
   171  C          0.37752000       0.56828000       0.66803840
   172  C          0.12248000       0.06828000       0.83196160
   173  C          0.73768000       0.43202000       0.37236170
   174  C          0.76232000       0.93202000       0.12763830
   175  C          0.26232000       0.56798000       0.62763830
   176  C          0.23768000       0.06798000       0.87236170
   177  C          0.82868000       0.41882000       0.32319180
   178  C          0.67132000       0.91882000       0.17680820
   179  C          0.17132000       0.58118000       0.67680820
   180  C          0.32868000       0.08118000       0.82319180
   181  C          0.80343810       0.40698190       0.23294160
   182  C          0.69656190       0.90698190       0.26705840
   183  C          0.19656190       0.59301810       0.76705840
   184  C          0.30343810       0.09301810       0.73294160
   185  C          0.68669820       0.40649170       0.18896140
   186  C          0.81330180       0.90649170       0.31103860
   187  C          0.31330180       0.59350830       0.81103860
   188  C          0.18669820       0.09350830       0.68896140
   189  C          0.66435810       0.39276180       0.09218150
   190  C          0.83564190       0.89276180       0.40781850
   191  C          0.33564190       0.60723820       0.90781850
   192  C          0.16435810       0.10723820       0.59218150
   193  H          0.45978100       0.40821600       0.13921600
   194  H          0.04021900       0.90821600       0.36078400
   195  H          0.54021900       0.59178400       0.86078400
   196  H          0.95978100       0.09178400       0.63921600
   197  H          0.73780000       0.36820000      -0.00720000
   198  H          0.76220000       0.86820000       0.50720000
   199  H          0.26220000       0.63180000       0.00720000
   200  H          0.23780000       0.13180000       0.49280000
   201  H          0.56180000       0.44101600       0.36151400
   202  H          0.93820000       0.94101600       0.13848600
   203  H          0.43820000       0.55898400       0.63848600
   204  H          0.06180000       0.05898400       0.86151400
   205  H          0.75480000       0.44471600       0.43771700
   206  H          0.74520000       0.94471600       0.06228300
   207  H          0.24520000       0.55528400       0.56228300
   208  H          0.25480000       0.05528400       0.93771700
   209  H          0.90780000       0.41681900       0.34941700
   210  H          0.59220000       0.91681900       0.15058300
   211  H          0.09220000       0.58318100       0.65058300
   212  H          0.40780000       0.08318100       0.84941700
   213  H          0.86068100       0.39821500       0.19731400
   214  H          0.63931900       0.89821500       0.30268600
   215  H          0.13931900       0.60178500       0.80268600
   216  H          0.36068100       0.10178500       0.69731400
   217  H          0.09870000       0.44330000       0.02130000
   218  H          0.40130000       0.94330000       0.47870000
   219  H          0.90130000       0.55670000       0.97870000
   220  H          0.59870000       0.05670000       0.52130000
   221  H          0.08480000       0.50320000       0.10961900
   222  H          0.41520000       0.00320000       0.39038100
   223  H          0.91520000       0.49680000       0.89038100
   224  H          0.58480000      -0.00320000       0.60961900
   225  H          0.05560000       0.39830000       0.11730000
   226  H          0.44440000       0.89830000       0.38270000
   227  H          0.94440000       0.60170000       0.88270000
   228  H          0.55560000       0.10170000       0.61730000
   229  H          0.31870000       0.46230000       0.39920000
   230  H          0.18130000       0.96230000       0.10080000
   231  H          0.68130000       0.53770000       0.60080000
   232  H          0.81870000       0.03770000       0.89920000
   233  H          0.30360000       0.35830000       0.39830000
   234  H          0.19640000       0.85830000       0.10170000
   235  H          0.69640000       0.64170000       0.60170000
   236  H          0.80360000       0.14170000       0.89830000
   237  H          0.19770000       0.42620000       0.41820000
   238  H          0.30230000       0.92620000       0.08180000
   239  H          0.80230000       0.57380000       0.58180000
   240  H          0.69770000       0.07380000       0.91820000
