data_DIRRAX01
_symmetry_space_group_name_H-M    'P1'
_symmetry_Int_Tables_number       1
loop_
_symmetry_equiv_pos_site_id
_symmetry_equiv_pos_as_xyz
1 x,y,z
_cell_length_a                   7.11246
_cell_length_b                   7.84556
_cell_length_c                   10.75988
_cell_angle_alpha                72.9335
_cell_angle_beta                 81.0844
_cell_angle_gamma                89.3445
loop_
_atom_site_label
_atom_site_type_symbol
_atom_site_fract_x
_atom_site_fract_y
_atom_site_fract_z
     1  C          0.21423000       0.71283000       0.34302000
     2  C          0.78577000       0.28717000       0.65698000
     3  C          0.26263000       0.54183000       0.41342000
     4  C          0.73737000       0.45817000       0.58658000
     5  C          0.34243000       0.42663000       0.34422000
     6  C          0.65757000       0.57337000       0.65578000
     7  H          0.37710000       0.31090000       0.39090000
     8  H          0.62290000       0.68910000       0.60910000
     9  C          0.37093000       0.47933000       0.20922000
    10  C          0.62907000       0.52067000       0.79078000
    11  H          0.42370000       0.39880000       0.16330000
    12  H          0.57630000       0.60120000       0.83670000
    13  C          0.32413000       0.64733000       0.13882000
    14  C          0.67587000       0.35267000       0.86118000
    15  H          0.34500000       0.68270000       0.04530000
    16  H          0.65500000       0.31730000       0.95470000
    17  C          0.24703000       0.76263000       0.20572000
    18  C          0.75297000       0.23737000       0.79428000
    19  H          0.21530000       0.87860000       0.15750000
    20  H          0.78470000       0.12140000       0.84250000
    21  C          0.12593000       0.84083000       0.41022000
    22  C          0.87407000       0.15917000       0.58978000
    23  C          0.25033000       0.26093000       0.74132000
    24  C          0.74967000       0.73907000       0.25868000
    25  C          0.29693000       0.07063000       0.78952000
    26  C          0.70307000       0.92937000       0.21048000
    27  C          0.38274000       0.97437000       0.69342000
    28  C          0.61726000       0.02563000       0.30658000
    29  H          0.31700000       0.85790000       0.71450000
    30  H          0.68300000       0.14210000       0.28550000
    31  H          0.51810000       0.95740000       0.69930000
    32  H          0.48190000       0.04260000       0.30070000
    33  H          0.36890000       0.04510000       0.60390000
    34  H          0.63110000       0.95490000       0.39610000
    35  C          0.18053000       0.37043000       0.83082000
    36  C          0.81947000       0.62957000       0.16918000
    37  C          0.15554000       0.29173000       0.97672000
    38  C          0.84446000       0.70827000       0.02328000
    39  H          0.12590000       0.38590000       0.01880000
    40  H          0.87410000       0.61410000       0.98120000
    41  H          0.27330000       0.23570000       0.00180000
    42  H          0.72670000       0.76430000      -0.00180000
    43  H          0.05090000       0.20170000       0.00530000
    44  H          0.94910000       0.79830000      -0.00530000
    45  N          0.23443000       0.48582000       0.55107170
    46  N          0.76557000       0.51418000       0.44892830
    47  H          0.19010000       0.55900000       0.59600000
    48  H          0.80990000       0.44100000       0.40400000
    49  N          0.27533000       0.32202000       0.61209180
    50  N          0.72467000       0.67798000       0.38790820
    51  O          0.08232000       0.80352000       0.52988150
    52  O          0.91768000       0.19648000       0.47011850
    53  O          0.09632000      -0.00218000       0.33049160
    54  O          0.90368000       0.00218000       0.66950840
    55  O          0.14392000       0.52592000       0.78237160
    56  O          0.85608000       0.47408000       0.21762840
    57  O          0.26643000      -0.01072000       0.90578170
    58  O          0.73357000       0.01072000       0.09421830
    59  H          0.03440000       0.07140000       0.38030000
    60  H          0.96560000       0.92860000       0.61970000
