data_DIRRAX02
_symmetry_space_group_name_H-M    'P1'
_symmetry_Int_Tables_number       1
loop_
_symmetry_equiv_pos_site_id
_symmetry_equiv_pos_as_xyz
1 x,y,z
_cell_length_a                   11.49949
_cell_length_b                   11.64399
_cell_length_c                   17.166913
_cell_angle_alpha                90.0
_cell_angle_beta                 93.4844
_cell_angle_gamma                90.0
loop_
_atom_site_label
_atom_site_type_symbol
_atom_site_fract_x
_atom_site_fract_y
_atom_site_fract_z
     1  O          0.38642800       0.45669800       0.31311500
     2  O          0.61357200       0.45669800       0.18688500
     3  O          0.88642800       0.95669800       0.31311500
     4  O          0.11357200       0.95669800       0.18688500
     5  O          0.61357200       0.54330200       0.68688500
     6  O          0.38642800       0.54330200       0.81311500
     7  O          0.11357200       0.04330200       0.68688500
     8  O          0.88642800       0.04330200       0.81311500
     9  O          0.71029800       0.14378800       0.73095500
    10  O          0.28970200       0.14378800       0.76904500
    11  O          0.21029800       0.64378800       0.73095500
    12  O          0.78970200       0.64378800       0.76904500
    13  O          0.28970200       0.85621200       0.26904500
    14  O          0.71029800       0.85621200       0.23095500
    15  O          0.78970200       0.35621200       0.26904500
    16  O          0.21029800       0.35621200       0.23095500
    17  O          0.43753800       0.30410800       0.38643500
    18  O          0.56246200       0.30410800       0.11356500
    19  O          0.93753800       0.80410800       0.38643500
    20  O          0.06246200       0.80410800       0.11356500
    21  O          0.56246200       0.69589200       0.61356500
    22  O          0.43753800       0.69589200       0.88643500
    23  O          0.06246200       0.19589200       0.61356500
    24  O          0.93753800       0.19589200       0.88643500
    25  O          0.50506900       0.14439800       0.52185600
    26  O          0.49493100       0.14439800       0.97814400
    27  O          0.00506900       0.64439800       0.52185600
    28  O         -0.00506900       0.64439800       0.97814400
    29  O          0.49493100       0.85560200       0.47814400
    30  O          0.50506900       0.85560200       0.02185600
    31  O         -0.00506900       0.35560200       0.47814400
    32  O          0.00506900       0.35560200       0.02185600
    33  N          0.60659900       0.33730900       0.50076600
    34  N          0.39340100       0.33730900      -0.00076600
    35  N          0.10659900       0.83730900       0.50076600
    36  N          0.89340100       0.83730900      -0.00076600
    37  N          0.39340100       0.66269100       0.49923400
    38  N          0.60659900       0.66269100       0.00076600
    39  N          0.89340100       0.16269100       0.49923400
    40  N          0.10659900       0.16269100       0.00076600
    41  N          0.66679800       0.31574900       0.56648500
    42  N          0.33320200       0.31574900       0.93351500
    43  N          0.16679800       0.81574900       0.56648500
    44  N          0.83320200       0.81574900       0.93351500
    45  N          0.33320200       0.68425100       0.43351500
    46  N          0.66679800       0.68425100       0.06648500
    47  N          0.83320200       0.18425100       0.43351500
    48  N          0.16679800       0.18425100       0.06648500
    49  C          0.55483100       0.47427100       0.39669600
    50  C          0.44516900       0.47427100       0.10330400
    51  C          0.05483100       0.97427100       0.39669600
    52  C          0.94516900       0.97427100       0.10330400
    53  C          0.44516900       0.52572900       0.60330400
    54  C          0.55483100       0.52572900       0.89669600
    55  C          0.94516900       0.02572900       0.60330400
    56  C          0.05483100       0.02572900       0.89669600
    57  C          0.62799100       0.44052100       0.46153600
    58  C          0.37200900       0.44052100       0.03846400
    59  C          0.12799100       0.94052100       0.46153600
    60  C          0.87200900       0.94052100       0.03846400
    61  C          0.37200900       0.55947900       0.53846400
    62  C          0.62799100       0.55947900       0.96153600
    63  C          0.87200900       0.05947900       0.53846400
    64  C          0.12799100       0.05947900       0.96153600
    65  C          0.64688100       0.22373100       0.60894700
    66  C          0.35311900       0.22373100       0.89105300
    67  C          0.14688100       0.72373100       0.60894700
    68  C          0.85311900       0.72373100       0.89105300
    69  C          0.35311900       0.77626900       0.39105300
    70  C          0.64688100       0.77626900       0.10894700
    71  C          0.85311900       0.27626900       0.39105300
    72  C          0.14688100       0.27626900       0.10894700
    73  C          0.57727110       0.57891110       0.36018700
    74  C          0.42272890       0.57891110       0.13981300
    75  C          0.07727110       0.07891110       0.36018700
    76  C          0.92272890       0.07891110       0.13981300
    77  C          0.42272890       0.42108890       0.63981300
    78  C          0.57727110       0.42108890       0.86018700
    79  C          0.92272890       0.92108890       0.63981300
    80  C          0.07727110       0.92108890       0.86018700
    81  C          0.72295100       0.21910110       0.68163700
    82  C          0.27704900       0.21910110       0.81836300
    83  C          0.22295100       0.71910110       0.68163700
    84  C          0.77704900       0.71910110       0.81836300
    85  C          0.27704900       0.78089890       0.31836300
    86  C          0.72295100       0.78089890       0.18163700
    87  C          0.77704900       0.28089890       0.31836300
    88  C          0.22295100       0.28089890       0.18163700
    89  C          0.72125100       0.51104110       0.48724700
    90  C          0.27874900       0.51104110       0.01275300
    91  C          0.22125100       0.01104110       0.48724700
    92  C          0.77874900       0.01104110       0.01275300
    93  C          0.27874900       0.48895890       0.51275300
    94  C          0.72125100       0.48895890       0.98724700
    95  C          0.77874900      -0.01104110       0.51275300
    96  C          0.22125100      -0.01104110       0.98724700
    97  C          0.45502100       0.40210110       0.36634600
    98  C          0.54497900       0.40210110       0.13365400
    99  C          0.95502100       0.90210110       0.36634600
   100  C          0.04497900       0.90210110       0.13365400
   101  C          0.54497900       0.59789890       0.63365400
   102  C          0.45502100       0.59789890       0.86634600
   103  C          0.04497900       0.09789890       0.63365400
   104  C          0.95502100       0.09789890       0.86634600
   105  C          0.55804100       0.13537110       0.58605700
   106  C          0.44195900       0.13537110       0.91394300
   107  C          0.05804100       0.63537110       0.58605700
   108  C          0.94195900       0.63537110       0.91394300
   109  C          0.44195900       0.86462890       0.41394300
   110  C          0.55804100       0.86462890       0.08605700
   111  C          0.94195900       0.36462890       0.41394300
   112  C          0.05804100       0.36462890       0.08605700
   113  C          0.66933110       0.64828120       0.38586800
   114  C          0.33066890       0.64828120       0.11413200
   115  C          0.16933110       0.14828120       0.38586800
   116  C          0.83066890       0.14828120       0.11413200
   117  C          0.33066890       0.35171880       0.61413200
   118  C          0.66933110       0.35171880       0.88586800
   119  C          0.83066890       0.85171880       0.61413200
   120  C          0.16933110       0.85171880       0.88586800
   121  C          0.74137110       0.61324120       0.44961800
   122  C          0.25862890       0.61324120       0.05038200
   123  C          0.24137110       0.11324120       0.44961800
   124  C          0.75862890       0.11324120       0.05038200
   125  C          0.25862890       0.38675880       0.55038200
   126  C          0.74137110       0.38675880       0.94961800
   127  C          0.75862890       0.88675880       0.55038200
   128  C          0.24137110       0.88675880       0.94961800
   129  C          0.81585120       0.30892120       0.69491800
   130  C          0.18414880       0.30892120       0.80508200
   131  C          0.31585120       0.80892120       0.69491800
   132  C          0.68414880       0.80892120       0.80508200
   133  C          0.18414880       0.69107880       0.30508200
   134  C          0.81585120       0.69107880       0.19491800
   135  C          0.68414880       0.19107880       0.30508200
   136  C          0.31585120       0.19107880       0.19491800
   137  C          0.53010150       0.03715140       0.63804900
   138  C          0.46989850       0.03715140       0.86195100
   139  C          0.03010150       0.53715140       0.63804900
   140  C          0.96989850       0.53715140       0.86195100
   141  C          0.46989850       0.96284860       0.36195100
   142  C          0.53010150       0.96284860       0.13804900
   143  C          0.96989850       0.46284860       0.36195100
   144  C          0.03010150       0.46284860       0.13804900
   145  H          0.68271400       0.71991500       0.36061000
   146  H          0.31728600       0.71991500       0.13939000
   147  H          0.18271400       0.21991500       0.36061000
   148  H          0.81728600       0.21991500       0.13939000
   149  H          0.31728600       0.28008500       0.63939000
   150  H          0.68271400       0.28008500       0.86061000
   151  H          0.81728600       0.78008500       0.63939000
   152  H          0.18271400       0.78008500       0.86061000
   153  H          0.86741700       0.30981700       0.65041100
   154  H          0.13258300       0.30981700       0.84958900
   155  H          0.36741700       0.80981700       0.65041100
   156  H          0.63258300       0.80981700       0.84958900
   157  H          0.13258300       0.69018300       0.34958900
   158  H          0.86741700       0.69018300       0.15041100
   159  H          0.63258300       0.19018300       0.34958900
   160  H          0.36741700       0.19018300       0.15041100
   161  H          0.80601500       0.65821400       0.46751000
   162  H          0.19398500       0.65821400       0.03249000
   163  H          0.30601500       0.15821400       0.46751000
   164  H          0.69398500       0.15821400       0.03249000
   165  H          0.19398500       0.34178600       0.53249000
   166  H          0.80601500       0.34178600       0.96751000
   167  H          0.69398500       0.84178600       0.53249000
   168  H          0.30601500       0.84178600       0.96751000
   169  H          0.60041800      -0.00081700       0.66111100
   170  H          0.39958200      -0.00081700       0.83888900
   171  H          0.10041800       0.49918300       0.66111100
   172  H          0.89958200       0.49918300       0.83888900
   173  H          0.39958200       0.00081700       0.33888900
   174  H          0.60041800       0.00081700       0.16111100
   175  H          0.89958200       0.50081700       0.33888900
   176  H          0.10041800       0.50081700       0.16111100
   177  H          0.52751300       0.60291400       0.31569000
   178  H          0.47248700       0.60291400       0.18431000
   179  H          0.02751300       0.10291400       0.31569000
   180  H          0.97248700       0.10291400       0.18431000
   181  H          0.47248700       0.39708600       0.68431000
   182  H          0.52751300       0.39708600       0.81569000
   183  H          0.97248700       0.89708600       0.68431000
   184  H          0.02751300       0.89708600       0.81569000
   185  H          0.85981400       0.29641400       0.74331000
   186  H          0.14018600       0.29641400       0.75669000
   187  H          0.35981400       0.79641400       0.74331000
   188  H          0.64018600       0.79641400       0.75669000
   189  H          0.14018600       0.70358600       0.25669000
   190  H          0.85981400       0.70358600       0.24331000
   191  H          0.64018600       0.20358600       0.25669000
   192  H          0.35981400       0.20358600       0.24331000
   193  H          0.77901600       0.38411600       0.69381000
   194  H          0.22098400       0.38411600       0.80619000
   195  H          0.27901600       0.88411600       0.69381000
   196  H          0.72098400       0.88411600       0.80619000
   197  H          0.22098400       0.61588400       0.30619000
   198  H          0.77901600       0.61588400       0.19381000
   199  H          0.72098400       0.11588400       0.30619000
   200  H          0.27901600       0.11588400       0.19381000
   201  H          0.77061400       0.48751400       0.53221000
   202  H          0.22938600       0.48751400       0.96779000
   203  H          0.27061400       0.98751400       0.53221000
   204  H          0.72938600       0.98751400       0.96779000
   205  H          0.22938600       0.51248600       0.46779000
   206  H          0.77061400       0.51248600       0.03221000
   207  H          0.72938600       0.01248600       0.46779000
   208  H          0.27061400       0.01248600       0.03221000
   209  H          0.48251900       0.97978100       0.60661200
   210  H          0.51748100       0.97978100       0.89338800
   211  H          0.98251900       0.47978100       0.60661200
   212  H          0.01748100       0.47978100       0.89338800
   213  H          0.51748100       0.02021900       0.39338800
   214  H          0.48251900       0.02021900       0.10661200
   215  H          0.01748100       0.52021900       0.39338800
   216  H          0.98251900       0.52021900       0.10661200
   217  H          0.48801800       0.06771800       0.68001300
   218  H          0.51198200       0.06771800       0.81998700
   219  H         -0.01198200       0.56771800       0.68001300
   220  H          0.01198200       0.56771800       0.81998700
   221  H          0.51198200       0.93228200       0.31998700
   222  H          0.48801800       0.93228200       0.18001300
   223  H          0.01198200       0.43228200       0.31998700
   224  H         -0.01198200       0.43228200       0.18001300
   225  H          0.55091400       0.28851500       0.48361000
   226  H          0.44908600       0.28851500       0.01639000
   227  H          0.05091400       0.78851500       0.48361000
   228  H          0.94908600       0.78851500       0.01639000
   229  H          0.44908600       0.71148500       0.51639000
   230  H          0.55091400       0.71148500       0.98361000
   231  H          0.94908600       0.21148500       0.51639000
   232  H          0.05091400       0.21148500       0.98361000
   233  H          0.33161800       0.41041900       0.29401200
   234  H          0.66838200       0.41041900       0.20598800
   235  H          0.83161800       0.91041900       0.29401200
   236  H          0.16838200       0.91041900       0.20598800
   237  H          0.66838200       0.58958100       0.70598800
   238  H          0.33161800       0.58958100       0.79401200
   239  H          0.16838200       0.08958100       0.70598800
   240  H          0.83161800       0.08958100       0.79401200
