data_DLNLUA03
_symmetry_space_group_name_H-M    'P1'
_symmetry_Int_Tables_number       1
loop_
_symmetry_equiv_pos_site_id
_symmetry_equiv_pos_as_xyz
1 x,y,z
_cell_length_a                   16.51308
_cell_length_b                   4.77402
_cell_length_c                   9.92454
_cell_angle_alpha                90.0
_cell_angle_beta                 102.3383
_cell_angle_gamma                90.0
loop_
_atom_site_label
_atom_site_type_symbol
_atom_site_fract_x
_atom_site_fract_y
_atom_site_fract_z
     1  N          0.40566110       0.54794000       0.85618160
     2  N          0.59433890       0.04794000       0.64381840
     3  N          0.59433890       0.45206000       0.14381840
     4  N          0.40566110       0.95206000       0.35618160
     5  H          0.40020000       0.37890000       0.89120000
     6  H          0.59980000       0.87890000       0.60880000
     7  H          0.59980000       0.62110000       0.10880000
     8  H          0.40020000       0.12110000       0.39120000
     9  H          0.38960000       0.67780000       0.90920000
    10  H          0.61040000       0.17780000       0.59080000
    11  H          0.61040000       0.32220000       0.09080000
    12  H          0.38960000       0.82220000       0.40920000
    13  H          0.45850000       0.57620000       0.85300000
    14  H          0.54150000       0.07620000       0.64700000
    15  H          0.54150000       0.42380000       0.14700000
    16  H          0.45850000       0.92380000       0.35300000
    17  O          0.37440120       0.45563000       0.49237150
    18  O          0.62559880       0.95563000       0.00762850
    19  O          0.62559880       0.54437000       0.50762850
    20  O          0.37440120       0.04437000      -0.00762850
    21  O          0.43411900       0.18233000       0.66677150
    22  O          0.56588100       0.68233000       0.83322850
    23  O          0.56588100       0.81767000       0.33322850
    24  O          0.43411900       0.31767000       0.16677150
    25  C          0.35345130       0.56544000       0.71461190
    26  C          0.64654870       0.06544000       0.78538810
    27  C          0.64654870       0.43456000       0.28538810
    28  C          0.35345130       0.93456000       0.21461190
    29  H          0.34960000       0.76090000       0.68370000
    30  H          0.65040000       0.26090000       0.81630000
    31  H          0.65040000       0.23910000       0.31630000
    32  H          0.34960000       0.73910000       0.18370000
    33  C          0.39205130       0.38934000       0.61722000
    34  C          0.60794870       0.88934000       0.88278000
    35  C          0.60794870       0.61066000       0.38278000
    36  C          0.39205130       0.11066000       0.11722000
    37  C          0.26579150       0.45076000       0.71253000
    38  C          0.73420850       0.95076000       0.78747000
    39  C          0.73420850       0.54924000       0.28747000
    40  C          0.26579150       0.04924000       0.21253000
    41  H          0.23300000       0.46950000       0.61950000
    42  H          0.76700000       0.96950000       0.88050000
    43  H          0.76700000       0.53050000       0.38050000
    44  H          0.23300000       0.03050000       0.11950000
    45  H          0.27060000       0.25210000       0.73340000
    46  H          0.72940000       0.75210000       0.76660000
    47  H          0.72940000       0.74790000       0.26660000
    48  H          0.27060000       0.24790000       0.23340000
    49  C          0.21922180       0.58487000       0.80894000
    50  C          0.78077820       0.08487000       0.69106000
    51  C          0.78077820       0.41513000       0.19106000
    52  C          0.21922180       0.91513000       0.30894000
    53  H          0.25060000       0.56070000       0.90270000
    54  H          0.74940000       0.06070000       0.59730000
    55  H          0.74940000       0.43930000       0.09730000
    56  H          0.25060000       0.93930000       0.40270000
    57  H          0.21510000       0.78430000       0.79000000
    58  H          0.78490000       0.28430000       0.71000000
    59  H          0.78490000       0.21570000       0.21000000
    60  H          0.21510000       0.71570000       0.29000000
    61  C          0.13432000       0.47021000       0.79915000
    62  C          0.86568000       0.97021000       0.70085000
    63  C          0.86568000       0.52979000       0.20085000
    64  C          0.13432000       0.02979000       0.29915000
    65  H          0.10230000       0.50780000       0.70690000
    66  H          0.89770000       0.00780000       0.79310000
    67  H          0.89770000       0.49220000       0.29310000
    68  H          0.10230000      -0.00780000       0.20690000
    69  H          0.13870000       0.26840000       0.80940000
    70  H          0.86130000       0.76840000       0.69060000
    71  H          0.86130000       0.73160000       0.19060000
    72  H          0.13870000       0.23160000       0.30940000
    73  C          0.08723000       0.57591500       0.89827000
    74  C          0.91277000       0.07591500       0.60173000
    75  C          0.91277000       0.42408500       0.10173000
    76  C          0.08723000       0.92408500       0.39827000
    77  H          0.11830000       0.54440000      -0.00960000
    78  H          0.88170000       0.04440000       0.50960000
    79  H          0.88170000       0.45560000       0.00960000
    80  H          0.11830000       0.95560000       0.49040000
    81  H          0.03510000       0.47940000       0.88530000
    82  H          0.96490000      -0.02060000       0.61470000
    83  H          0.96490000       0.52060000       0.11470000
    84  H          0.03510000       0.02060000       0.38530000
    85  H          0.07750000       0.77300000       0.88390000
    86  H          0.92250000       0.27300000       0.61610000
    87  H          0.92250000       0.22700000       0.11610000
    88  H          0.07750000       0.72700000       0.38390000
