data_DLNLUA05
_symmetry_space_group_name_H-M    'P1'
_symmetry_Int_Tables_number       1
loop_
_symmetry_equiv_pos_site_id
_symmetry_equiv_pos_as_xyz
1 x,y,z
_cell_length_a                   34.1713
_cell_length_b                   4.81973
_cell_length_c                   9.83567
_cell_angle_alpha                90.0
_cell_angle_beta                 101.0543
_cell_angle_gamma                90.0
loop_
_atom_site_label
_atom_site_type_symbol
_atom_site_fract_x
_atom_site_fract_y
_atom_site_fract_z
     1  N          0.70476800       0.19135000       0.58542000
     2  N          0.29523200       0.19135000       0.91458000
     3  N          0.20476800       0.69135000       0.58542000
     4  N          0.79523200       0.69135000       0.91458000
     5  N          0.29523200       0.80865000       0.41458000
     6  N          0.70476800       0.80865000       0.08542000
     7  N          0.79523200       0.30865000       0.41458000
     8  N          0.20476800       0.30865000       0.08542000
     9  H          0.69770000       0.05920000       0.52220000
    10  H          0.30230000       0.05920000       0.97780000
    11  H          0.19770000       0.55920000       0.52220000
    12  H          0.80230000       0.55920000       0.97780000
    13  H          0.30230000       0.94080000       0.47780000
    14  H          0.69770000       0.94080000       0.02220000
    15  H          0.80230000       0.44080000       0.47780000
    16  H          0.19770000       0.44080000       0.02220000
    17  H          0.73050000       0.17280000       0.62310000
    18  H          0.26950000       0.17280000       0.87690000
    19  H          0.23050000       0.67280000       0.62310000
    20  H          0.76950000       0.67280000       0.87690000
    21  H          0.26950000       0.82720000       0.37690000
    22  H          0.73050000       0.82720000       0.12310000
    23  H          0.76950000       0.32720000       0.37690000
    24  H          0.23050000       0.32720000       0.12310000
    25  H          0.70070000       0.35700000       0.54520000
    26  H          0.29930000       0.35700000       0.95480000
    27  H          0.20070000       0.85700000       0.54520000
    28  H          0.79930000       0.85700000       0.95480000
    29  H          0.29930000       0.64300000       0.45480000
    30  H          0.70070000       0.64300000       0.04520000
    31  H          0.79930000       0.14300000       0.45480000
    32  H          0.20070000       0.14300000       0.04520000
    33  O          0.71704700       0.56274000       0.78912000
    34  O          0.28295300       0.56274000       0.71088000
    35  O          0.21704700       0.06274000       0.78912000
    36  O          0.78295300       0.06274000       0.71088000
    37  O          0.28295300       0.43726000       0.21088000
    38  O          0.71704700       0.43726000       0.28912000
    39  O          0.78295300       0.93726000       0.21088000
    40  O          0.21704700       0.93726000       0.28912000
    41  O          0.68833900       0.30194000       0.92812000
    42  O          0.31166100       0.30194000       0.57188000
    43  O          0.18833900       0.80194000       0.92812000
    44  O          0.81166100       0.80194000       0.57188000
    45  O          0.31166100       0.69806000       0.07188000
    46  O          0.68833900       0.69806000       0.42812000
    47  O          0.81166100       0.19806000       0.07188000
    48  O          0.18833900       0.19806000       0.42812000
    49  C          0.68058100       0.16656000       0.69443000
    50  C          0.31941900       0.16656000       0.80557000
    51  C          0.18058100       0.66656000       0.69443000
    52  C          0.81941900       0.66656000       0.80557000
    53  C          0.31941900       0.83344000       0.30557000
    54  C          0.68058100       0.83344000       0.19443000
    55  C          0.81941900       0.33344000       0.30557000
    56  C          0.18058100       0.33344000       0.19443000
    57  H          0.68150000      -0.02550000       0.72770000
    58  H          0.31850000      -0.02550000       0.77230000
    59  H          0.18150000       0.47450000       0.72770000
    60  H          0.81850000       0.47450000       0.77230000
    61  H          0.31850000       0.02550000       0.27230000
    62  H          0.68150000       0.02550000       0.22770000
    63  H          0.81850000       0.52550000       0.27230000
    64  H          0.18150000       0.52550000       0.22770000
    65  C          0.69726100       0.35936000       0.81493000
    66  C          0.30273900       0.35936000       0.68507000
    67  C          0.19726100       0.85936000       0.81493000
    68  C          0.80273900       0.85936000       0.68507000
    69  C          0.30273900       0.64064000       0.18507000
    70  C          0.69726100       0.64064000       0.31493000
    71  C          0.80273900       0.14064000       0.18507000
    72  C          0.19726100       0.14064000       0.31493000
    73  C          0.63761160       0.24311400       0.62956000
    74  C          0.36238840       0.24311400       0.87044000
    75  C          0.13761160       0.74311400       0.62956000
    76  C          0.86238840       0.74311400       0.87044000
    77  C          0.36238840       0.75688600       0.37044000
    78  C          0.63761160       0.75688600       0.12956000
    79  C          0.86238840       0.25688600       0.37044000
    80  C          0.13761160       0.25688600       0.12956000
    81  H          0.63740000       0.43770000       0.60420000
    82  H          0.36260000       0.43770000       0.89580000
    83  H          0.13740000       0.93770000       0.60420000
    84  H          0.86260000       0.93770000       0.89580000
    85  H          0.36260000       0.56230000       0.39580000
    86  H          0.63740000       0.56230000       0.10420000
    87  H          0.86260000       0.06230000       0.39580000
    88  H          0.13740000       0.06230000       0.10420000
    89  H          0.63040000       0.13870000       0.54400000
    90  H          0.36960000       0.13870000       0.95600000
    91  H          0.13040000       0.63870000       0.54400000
    92  H          0.86960000       0.63870000       0.95600000
    93  H          0.36960000       0.86130000       0.45600000
    94  H          0.63040000       0.86130000       0.04400000
    95  H          0.86960000       0.36130000       0.45600000
    96  H          0.13040000       0.36130000       0.04400000
    97  C          0.60533000       0.20130000       0.71001100
    98  C          0.39467000       0.20130000       0.78998900
    99  C          0.10533000       0.70130000       0.71001100
   100  C          0.89467000       0.70130000       0.78998900
   101  C          0.39467000       0.79870000       0.28998900
   102  C          0.60533000       0.79870000       0.21001100
   103  C          0.89467000       0.29870000       0.28998900
   104  C          0.10533000       0.29870000       0.21001100
   105  H          0.60900000       0.31960000       0.79100000
   106  H          0.39100000       0.31960000       0.70900000
   107  H          0.10900000       0.81960000       0.79100000
   108  H          0.89100000       0.81960000       0.70900000
   109  H          0.39100000       0.68040000       0.20900000
   110  H          0.60900000       0.68040000       0.29100000
   111  H          0.89100000       0.18040000       0.20900000
   112  H          0.10900000       0.18040000       0.29100000
   113  H          0.60430000       0.00900000       0.73920000
   114  H          0.39570000       0.00900000       0.76080000
   115  H          0.10430000       0.50900000       0.73920000
   116  H          0.89570000       0.50900000       0.76080000
   117  H          0.39570000      -0.00900000       0.26080000
   118  H          0.60430000      -0.00900000       0.23920000
   119  H          0.89570000       0.49100000       0.26080000
   120  H          0.10430000       0.49100000       0.23920000
   121  C          0.56694000       0.28140000       0.60520000
   122  C          0.43306000       0.28140000       0.89480000
   123  C          0.06694000       0.78140000       0.60520000
   124  C          0.93306000       0.78140000       0.89480000
   125  C          0.43306000       0.71860000       0.39480000
   126  C          0.56694000       0.71860000       0.10520000
   127  C          0.93306000       0.21860000       0.39480000
   128  C          0.06694000       0.21860000       0.10520000
   129  H          0.56730000       0.47970000       0.59070000
   130  H          0.43270000       0.47970000       0.90930000
   131  H          0.06730000      -0.02030000       0.59070000
   132  H          0.93270000      -0.02030000       0.90930000
   133  H          0.43270000       0.52030000       0.40930000
   134  H          0.56730000       0.52030000       0.09070000
   135  H          0.93270000       0.02030000       0.40930000
   136  H          0.06730000       0.02030000       0.09070000
   137  H          0.56810000       0.19310000       0.51730000
   138  H          0.43190000       0.19310000       0.98270000
   139  H          0.06810000       0.69310000       0.51730000
   140  H          0.93190000       0.69310000       0.98270000
   141  H          0.43190000       0.80690000       0.48270000
   142  H          0.56810000       0.80690000       0.01730000
   143  H          0.93190000       0.30690000       0.48270000
   144  H          0.06810000       0.30690000       0.01730000
   145  C          0.52651300       0.20570000       0.64470000
   146  C          0.47348700       0.20570000       0.85530000
   147  C          0.02651300       0.70570000       0.64470000
   148  C          0.97348700       0.70570000       0.85530000
   149  C          0.47348700       0.79430000       0.35530000
   150  C          0.52651300       0.79430000       0.14470000
   151  C          0.97348700       0.29430000       0.35530000
   152  C          0.02651300       0.29430000       0.14470000
   153  H          0.51230000       0.37130000       0.65750000
   154  H          0.48770000       0.37130000       0.84250000
   155  H          0.01230000       0.87130000       0.65750000
   156  H          0.98770000       0.87130000       0.84250000
   157  H          0.48770000       0.62870000       0.34250000
   158  H          0.51230000       0.62870000       0.15750000
   159  H          0.98770000       0.12870000       0.34250000
   160  H          0.01230000       0.12870000       0.15750000
   161  H          0.53110000       0.09790000       0.72800000
   162  H          0.46890000       0.09790000       0.77200000
   163  H          0.03110000       0.59790000       0.72800000
   164  H          0.96890000       0.59790000       0.77200000
   165  H          0.46890000       0.90210000       0.27200000
   166  H          0.53110000       0.90210000       0.22800000
   167  H          0.96890000       0.40210000       0.27200000
   168  H          0.03110000       0.40210000       0.22800000
   169  H          0.51090000       0.09730000       0.57080000
   170  H          0.48910000       0.09730000       0.92920000
   171  H          0.01090000       0.59730000       0.57080000
   172  H          0.98910000       0.59730000       0.92920000
   173  H          0.48910000       0.90270000       0.42920000
   174  H          0.51090000       0.90270000       0.07080000
   175  H          0.98910000       0.40270000       0.42920000
   176  H          0.01090000       0.40270000       0.07080000
