data_DLNLUA04
_symmetry_space_group_name_H-M    'P1'
_symmetry_Int_Tables_number       1
loop_
_symmetry_equiv_pos_site_id
_symmetry_equiv_pos_as_xyz
1 x,y,z
_cell_length_a                   31.29559
_cell_length_b                   4.726601
_cell_length_c                   9.88033
_cell_angle_alpha                90.0
_cell_angle_beta                 91.8702
_cell_angle_gamma                90.0
loop_
_atom_site_label
_atom_site_type_symbol
_atom_site_fract_x
_atom_site_fract_y
_atom_site_fract_z
     1  C          0.30554400       0.13383000       0.16656150
     2  C          0.69445600       0.13383000       0.33343850
     3  C          0.80554400       0.63383000       0.16656150
     4  C          0.19445600       0.63383000       0.33343850
     5  C          0.69445600       0.86617000       0.83343850
     6  C          0.30554400       0.86617000       0.66656150
     7  C          0.19445600       0.36617000       0.83343850
     8  C          0.80554400       0.36617000       0.66656150
     9  C          0.32563500       0.30973000       0.28128140
    10  C          0.67436500       0.30973000       0.21871860
    11  C          0.82563500       0.80973000       0.28128140
    12  C          0.17436500       0.80973000       0.21871860
    13  C          0.67436500       0.69027000       0.71871860
    14  C          0.32563500       0.69027000       0.78128140
    15  C          0.17436500       0.19027000       0.71871860
    16  C          0.82563500       0.19027000       0.78128140
    17  H          0.32810000       0.51080000       0.25110000
    18  H          0.67190000       0.51080000       0.24890000
    19  H          0.82810000       0.01080000       0.25110000
    20  H          0.17190000       0.01080000       0.24890000
    21  H          0.67190000       0.48920000       0.74890000
    22  H          0.32810000       0.48920000       0.75110000
    23  H          0.17190000      -0.01080000       0.74890000
    24  H          0.82810000      -0.01080000       0.75110000
    25  C          0.37009500       0.19463000       0.31767150
    26  C          0.62990500       0.19463000       0.18232850
    27  C          0.87009500       0.69463000       0.31767150
    28  C          0.12990500       0.69463000       0.18232850
    29  C          0.62990500       0.80537000       0.68232850
    30  C          0.37009500       0.80537000       0.81767150
    31  C          0.12990500       0.30537000       0.68232850
    32  C          0.87009500       0.30537000       0.81767150
    33  H          0.36770000      -0.01210000       0.33200000
    34  H          0.63230000      -0.01210000       0.16800000
    35  H          0.86770000       0.48790000       0.33200000
    36  H          0.13230000       0.48790000       0.16800000
    37  H          0.63230000       0.01210000       0.66800000
    38  H          0.36770000       0.01210000       0.83200000
    39  H          0.13230000       0.51210000       0.66800000
    40  H          0.86770000       0.51210000       0.83200000
    41  H          0.38850000       0.22420000       0.23920000
    42  H          0.61150000       0.22420000       0.26080000
    43  H          0.88850000       0.72420000       0.23920000
    44  H          0.11150000       0.72420000       0.26080000
    45  H          0.61150000       0.77580000       0.76080000
    46  H          0.38850000       0.77580000       0.73920000
    47  H          0.11150000       0.27580000       0.76080000
    48  H          0.88850000       0.27580000       0.73920000
    49  C          0.39237500       0.32334000       0.44214160
    50  C          0.60762500       0.32334000       0.05785840
    51  C          0.89237500       0.82334000       0.44214160
    52  C          0.10762500       0.82334000       0.05785840
    53  C          0.60762500       0.67666000       0.55785840
    54  C          0.39237500       0.67666000       0.94214160
    55  C          0.10762500       0.17666000       0.55785840
    56  C          0.89237500       0.17666000       0.94214160
    57  H          0.39430000       0.53080000       0.42990000
    58  H          0.60570000       0.53080000       0.07010000
    59  H          0.89430000       0.03080000       0.42990000
    60  H          0.10570000       0.03080000       0.07010000
    61  H          0.60570000       0.46920000       0.57010000
    62  H          0.39430000       0.46920000       0.92990000
    63  H          0.10570000       0.96920000       0.57010000
    64  H          0.89430000       0.96920000       0.92990000
    65  H          0.37490000       0.28730000       0.52200000
    66  H          0.62510000       0.28730000       0.97800000
    67  H          0.87490000       0.78730000       0.52200000
    68  H          0.12510000       0.78730000       0.97800000
    69  H          0.62510000       0.71270000       0.47800000
    70  H          0.37490000       0.71270000       0.02200000
    71  H          0.12510000       0.21270000       0.47800000
    72  H          0.87490000       0.21270000       0.02200000
    73  C          0.43681600       0.20644000       0.46932000
    74  C          0.56318400       0.20644000       0.03068000
    75  C          0.93681600       0.70644000       0.46932000
    76  C          0.06318400       0.70644000       0.03068000
    77  C          0.56318400       0.79356000       0.53068000
    78  C          0.43681600       0.79356000       0.96932000
    79  C          0.06318400       0.29356000       0.53068000
    80  C          0.93681600       0.29356000       0.96932000
    81  H          0.45500000       0.25830000       0.39310000
    82  H          0.54500000       0.25830000       0.10690000
    83  H          0.95500000       0.75830000       0.39310000
    84  H          0.04500000       0.75830000       0.10690000
    85  H          0.54500000       0.74170000       0.60690000
    86  H          0.45500000       0.74170000       0.89310000
    87  H          0.04500000       0.24170000       0.60690000
    88  H          0.95500000       0.24170000       0.89310000
    89  H          0.43520000      -0.00270000       0.47270000
    90  H          0.56480000      -0.00270000       0.02730000
    91  H          0.93520000       0.49730000       0.47270000
    92  H          0.06480000       0.49730000       0.02730000
    93  H          0.56480000       0.00270000       0.52730000
    94  H          0.43520000       0.00270000       0.97270000
    95  H          0.06480000       0.50270000       0.52730000
    96  H          0.93520000       0.50270000       0.97270000
    97  C          0.45777600       0.31255000       0.60012000
    98  C          0.54222400       0.31255000       0.89988000
    99  C          0.95777600       0.81255000       0.60012000
   100  C          0.04222400       0.81255000       0.89988000
   101  C          0.54222400       0.68745000       0.39988000
   102  C          0.45777600       0.68745000       0.10012000
   103  C          0.04222400       0.18745000       0.39988000
   104  C          0.95777600       0.18745000       0.10012000
   105  H          0.45950000       0.51950000       0.59790000
   106  H          0.54050000       0.51950000       0.90210000
   107  H          0.95950000       0.01950000       0.59790000
   108  H          0.04050000       0.01950000       0.90210000
   109  H          0.54050000       0.48050000       0.40210000
   110  H          0.45950000       0.48050000       0.09790000
   111  H          0.04050000      -0.01950000       0.40210000
   112  H          0.95950000      -0.01950000       0.09790000
   113  H          0.48660000       0.23320000       0.61040000
   114  H          0.51340000       0.23320000       0.88960000
   115  H          0.98660000       0.73320000       0.61040000
   116  H          0.01340000       0.73320000       0.88960000
   117  H          0.51340000       0.76680000       0.38960000
   118  H          0.48660000       0.76680000       0.11040000
   119  H          0.01340000       0.26680000       0.38960000
   120  H          0.98660000       0.26680000       0.11040000
   121  H          0.44080000       0.25350000       0.67670000
   122  H          0.55920000       0.25350000       0.82330000
   123  H          0.94080000       0.75350000       0.67670000
   124  H          0.05920000       0.75350000       0.82330000
   125  H          0.55920000       0.74650000       0.32330000
   126  H          0.44080000       0.74650000       0.17670000
   127  H          0.05920000       0.24650000       0.32330000
   128  H          0.94080000       0.24650000       0.17670000
   129  N          0.29773400       0.29603000       0.40007120
   130  N          0.70226600       0.29603000       0.09992880
   131  N          0.79773400       0.79603000       0.40007120
   132  N          0.20226600       0.79603000       0.09992880
   133  N          0.70226600       0.70397000       0.59992880
   134  N          0.29773400       0.70397000       0.90007120
   135  N          0.20226600       0.20397000       0.59992880
   136  N          0.79773400       0.20397000       0.90007120
   137  H          0.30030000       0.12280000       0.43970000
   138  H          0.69970000       0.12280000       0.06030000
   139  H          0.80030000       0.62280000       0.43970000
   140  H          0.19970000       0.62280000       0.06030000
   141  H          0.69970000       0.87720000       0.56030000
   142  H          0.30030000       0.87720000       0.93970000
   143  H          0.19970000       0.37720000       0.56030000
   144  H          0.80030000       0.37720000       0.93970000
   145  H          0.27010000       0.32460000       0.37230000
   146  H          0.72990000       0.32460000       0.12770000
   147  H          0.77010000       0.82460000       0.37230000
   148  H          0.22990000       0.82460000       0.12770000
   149  H          0.72990000       0.67540000       0.62770000
   150  H          0.27010000       0.67540000       0.87230000
   151  H          0.22990000       0.17540000       0.62770000
   152  H          0.77010000       0.17540000       0.87230000
   153  H          0.30580000       0.43220000       0.46090000
   154  H          0.69420000       0.43220000       0.03910000
   155  H          0.80580000       0.93220000       0.46090000
   156  H          0.19420000       0.93220000       0.03910000
   157  H          0.69420000       0.56780000       0.53910000
   158  H          0.30580000       0.56780000       0.96090000
   159  H          0.19420000       0.06780000       0.53910000
   160  H          0.80580000       0.06780000       0.96090000
   161  O          0.28400300       0.92378000       0.19910100
   162  O          0.71599700       0.92378000       0.30089900
   163  O          0.78400300       0.42378000       0.19910100
   164  O          0.21599700       0.42378000       0.30089900
   165  O          0.71599700       0.07622000       0.80089900
   166  O          0.28400300       0.07622000       0.69910100
   167  O          0.21599700       0.57622000       0.80089900
   168  O          0.78400300       0.57622000       0.69910100
   169  O          0.31427400       0.20602000       0.04740100
   170  O          0.68572600       0.20602000       0.45259900
   171  O          0.81427400       0.70602000       0.04740100
   172  O          0.18572600       0.70602000       0.45259900
   173  O          0.68572600       0.79398000       0.95259900
   174  O          0.31427400       0.79398000       0.54740100
   175  O          0.18572600       0.29398000       0.95259900
   176  O          0.81427400       0.29398000       0.54740100
