data_DMANTL
_symmetry_space_group_name_H-M    'P1'
_symmetry_Int_Tables_number       1
loop_
_symmetry_equiv_pos_site_id
_symmetry_equiv_pos_as_xyz
1 x,y,z
_cell_length_a                   8.6728
_cell_length_b                   16.8751
_cell_length_c                   5.5605
_cell_angle_alpha                90.0
_cell_angle_beta                 90.0
_cell_angle_gamma                90.0
loop_
_atom_site_label
_atom_site_type_symbol
_atom_site_fract_x
_atom_site_fract_y
_atom_site_fract_z
     1  C         -0.00010000       0.50660000       0.42570000
     2  C          0.49990000      -0.00660000       0.57430000
     3  C          0.00010000       0.00660000       0.07430000
     4  C          0.50010000       0.49340000       0.92570000
     5  C          0.02530000       0.54390000       0.18320000
     6  C          0.52530000       0.95610000       0.81680000
     7  C          0.97470000       0.04390000       0.31680000
     8  C          0.47470000       0.45610000       0.68320000
     9  C          0.07070000       0.63080000       0.20510000
    10  C          0.57070000       0.86920000       0.79490000
    11  C          0.92930000       0.13080000       0.29490000
    12  C          0.42930000       0.36920000       0.70510000
    13  C          0.08440000       0.67160000       0.96370000
    14  C          0.58440000       0.82840000       0.03630000
    15  C          0.91560000       0.17160000       0.53630000
    16  C          0.41560000       0.32840000       0.46370000
    17  C          0.11860000       0.76080000      -0.01600000
    18  C          0.61860000       0.73920000       0.01600000
    19  C          0.88140000       0.26080000       0.51600000
    20  C          0.38140000       0.23920000       0.48400000
    21  C          0.13140000       0.80130000       0.74420000
    22  C          0.63140000       0.69870000       0.25580000
    23  C          0.86860000       0.30130000       0.75580000
    24  C          0.36860000       0.19870000       0.24420000
    25  H          0.97500000       0.45000000       0.40000000
    26  H          0.47500000       0.05000000       0.60000000
    27  H          0.02500000       0.95000000       0.10000000
    28  H          0.52500000       0.55000000       0.90000000
    29  H          0.78000000       0.54000000       0.55000000
    30  H          0.28000000       0.96000000       0.45000000
    31  H          0.22000000       0.04000000       0.95000000
    32  H          0.72000000       0.46000000       0.05000000
    33  H          0.10000000       0.51000000       0.55000000
    34  H          0.60000000       0.99000000       0.45000000
    35  H          0.90000000       0.01000000       0.95000000
    36  H          0.40000000       0.49000000       0.05000000
    37  H          0.10000000       0.50000000       0.10000000
    38  H          0.60000000       0.00000000       0.90000000
    39  H          0.90000000       0.00000000       0.40000000
    40  H          0.40000000       0.50000000       0.60000000
    41  H          0.90000000       0.55000000       0.90000000
    42  H          0.40000000       0.95000000       0.10000000
    43  H          0.10000000       0.05000000       0.60000000
    44  H          0.60000000       0.45000000       0.40000000
    45  H         -0.00000000       0.67000000       0.30000000
    46  H          0.50000000       0.83000000       0.70000000
    47  H          0.00000000       0.17000000       0.20000000
    48  H          0.50000000       0.33000000       0.80000000
    49  H         -0.01300000       0.66000000       0.85000000
    50  H          0.48700000       0.84000000       0.15000000
    51  H          0.01300000       0.16000000       0.65000000
    52  H          0.51300000       0.34000000       0.35000000
    53  H          0.32500000       0.64000000       0.87500000
    54  H          0.82500000       0.86000000       0.12500000
    55  H          0.67500000       0.14000000       0.62500000
    56  H          0.17500000       0.36000000       0.37500000
    57  H          0.22500000       0.77200000       0.10000000
    58  H          0.72500000       0.72800000       0.90000000
    59  H          0.77500000       0.27200000       0.40000000
    60  H          0.27500000       0.22800000       0.60000000
    61  H          0.02500000       0.79000000       0.30000000
    62  H          0.52500000       0.71000000       0.70000000
    63  H          0.97500000       0.29000000       0.20000000
    64  H          0.47500000       0.21000000       0.80000000
    65  H          0.20000000       0.77000000       0.63000000
    66  H          0.70000000       0.73000000       0.37000000
    67  H          0.80000000       0.27000000       0.87000000
    68  H          0.30000000       0.23000000       0.13000000
    69  H          0.92500000       0.84000000       0.65000000
    70  H          0.42500000       0.66000000       0.35000000
    71  H          0.07500000       0.34000000       0.85000000
    72  H          0.57500000       0.16000000       0.15000000
    73  H          0.15500000       0.86000000       0.80000000
    74  H          0.65500000       0.64000000       0.20000000
    75  H          0.84500000       0.36000000       0.70000000
    76  H          0.34500000       0.14000000       0.30000000
    77  H          0.18000000       0.62800000       0.50000000
    78  H          0.68000000       0.87200000       0.50000000
    79  H          0.82000000       0.12800000       0.00000000
    80  H          0.32000000       0.37200000      -0.00000000
    81  O          0.88790000       0.54750000       0.56630000
    82  O          0.38790000       0.95250000       0.43370000
    83  O          0.11210000       0.04750000       0.93370000
    84  O          0.61210000       0.45250000       0.06630000
    85  O          0.88370000       0.53710000       0.04950000
    86  O          0.38370000       0.96290000       0.95050000
    87  O          0.11630000       0.03710000       0.45050000
    88  O          0.61630000       0.46290000       0.54950000
    89  O          0.21580000       0.63660000       0.32710000
    90  O          0.71580000       0.86340000       0.67290000
    91  O          0.78420000       0.13660000       0.17290000
    92  O          0.28420000       0.36340000       0.82710000
    93  O          0.20510000       0.63470000       0.82300000
    94  O          0.70510000       0.86530000       0.17700000
    95  O          0.79490000       0.13470000       0.67700000
    96  O          0.29490000       0.36530000       0.32300000
    97  O         -0.00570000       0.79940000       0.11120000
    98  O          0.49430000       0.70060000       0.88880000
    99  O          0.00570000       0.29940000       0.38880000
   100  O          0.50570000       0.20060000       0.61120000
   101  O         -0.00380000       0.78930000       0.59960000
   102  O          0.49620000       0.71070000       0.40040000
   103  O          0.00380000       0.28930000       0.90040000
   104  O          0.50380000       0.21070000       0.09960000
