data_DMANTL10
_symmetry_space_group_name_H-M    'P1'
_symmetry_Int_Tables_number       1
loop_
_symmetry_equiv_pos_site_id
_symmetry_equiv_pos_as_xyz
1 x,y,z
_cell_length_a                   4.8992
_cell_length_b                   18.2686
_cell_length_c                   5.0432
_cell_angle_alpha                90.0
_cell_angle_beta                 118.392
_cell_angle_gamma                90.0
loop_
_atom_site_label
_atom_site_type_symbol
_atom_site_fract_x
_atom_site_fract_y
_atom_site_fract_z
     1  O          0.68964000       0.53330900       0.89324000
     2  O          0.31036000       0.03330900       0.10676000
     3  H          0.73270000       0.49041900      -0.02830000
     4  H          0.26730000       0.99041900       0.02830000
     5  O          0.16464000       0.61137900       0.90893000
     6  O          0.83536000       0.11137900       0.09107000
     7  H          0.01770000       0.58201800       0.88370000
     8  H         -0.01770000       0.08201800       0.11630000
     9  O          0.51214000       0.67217900       0.45014000
    10  O          0.48786000       0.17217900       0.54986000
    11  H          0.38570000       0.65331600       0.29070000
    12  H          0.61430000       0.15331600       0.70930000
    13  O          0.94697000       0.74841900       0.40253000
    14  O          0.05303000       0.24841900       0.59747000
    15  H          0.79830000       0.72651600       0.43160000
    16  H          0.20170000       0.22651600       0.56840000
    17  O          0.73633000       0.81517900       0.86154000
    18  O          0.26367000       0.31517900       0.13846000
    19  H          0.77070000       0.79541700       0.02180000
    20  H          0.22930000       0.29541700      -0.02180000
    21  O          0.22574000       0.89418900       0.90414000
    22  O          0.77426000       0.39418900       0.09586000
    23  H          0.07880000       0.87111900       0.88170000
    24  H          0.92120000       0.37111900       0.11830000
    25  C          0.37815000       0.53669120       0.65215000
    26  C          0.62185000       0.03669120       0.34785000
    27  H          0.25770000       0.49520000       0.66960000
    28  H          0.74230000      -0.00480000       0.33040000
    29  H          0.37970000       0.53200000       0.45720000
    30  H          0.62030000       0.03200000       0.54280000
    31  C          0.22215000       0.60816120       0.65675000
    32  C          0.77785000       0.10816120       0.34325000
    33  H          0.01920000       0.61170000       0.46760000
    34  H         -0.01920000       0.11170000       0.53240000
    35  C          0.41765000       0.67513130       0.67664000
    36  C          0.58235000       0.17513130       0.32336000
    37  H          0.60920000       0.67350000       0.87680000
    38  H          0.39080000       0.17350000       0.12320000
    39  C          0.24814000       0.74703130       0.66125000
    40  C          0.75186000       0.24703130       0.33875000
    41  H          0.22460000       0.75160000       0.84690000
    42  H          0.77540000       0.25160000       0.15310000
    43  C          0.41735000       0.81441130       0.63445000
    44  C          0.58265000       0.31441130       0.36555000
    45  H          0.41380000       0.81140000       0.43480000
    46  H          0.58620000       0.31140000       0.56520000
    47  C          0.25705000       0.88554120       0.63765000
    48  C          0.74295000       0.38554120       0.36235000
    49  H          0.37740000       0.92720000       0.62160000
    50  H          0.62260000       0.42720000       0.37840000
    51  H          0.04840000       0.88680000       0.45920000
    52  H          0.95160000       0.38680000       0.54080000
