data_DMANTL01
_symmetry_space_group_name_H-M    'P1'
_symmetry_Int_Tables_number       1
loop_
_symmetry_equiv_pos_site_id
_symmetry_equiv_pos_as_xyz
1 x,y,z
_cell_length_a                   8.9425
_cell_length_b                   18.7989
_cell_length_c                   4.8934
_cell_angle_alpha                90.0
_cell_angle_beta                 90.0
_cell_angle_gamma                90.0
loop_
_atom_site_label
_atom_site_type_symbol
_atom_site_fract_x
_atom_site_fract_y
_atom_site_fract_z
     1  C          0.49510000       0.98730000       0.86990000
     2  C         -0.00490000       0.51270000       0.13010000
     3  C          0.50490000       0.48730000       0.63010000
     4  C          0.00490000       0.01270000       0.36990000
     5  C          0.46260000       0.05160000       0.04560000
     6  C          0.96260000       0.44840000       0.95440000
     7  C          0.53740000       0.55160000       0.45440000
     8  C          0.03740000       0.94840000       0.54560000
     9  C          0.43270000       0.11840000       0.87960000
    10  C          0.93270000       0.38160000       0.12040000
    11  C          0.56730000       0.61840000       0.62040000
    12  C          0.06730000       0.88160000       0.37960000
    13  C          0.41370000       0.18490000       0.05470000
    14  C          0.91370000       0.31510000       0.94530000
    15  C          0.58630000       0.68490000       0.44530000
    16  C          0.08630000       0.81510000       0.55470000
    17  C          0.39500000       0.25240000       0.88840000
    18  C          0.89500000       0.24760000       0.11160000
    19  C          0.60500000       0.75240000       0.61160000
    20  C          0.10500000       0.74760000       0.38840000
    21  C          0.38520000       0.31950000       0.06180000
    22  C          0.88520000       0.18050000       0.93820000
    23  C          0.61480000       0.81950000       0.43820000
    24  C          0.11480000       0.68050000       0.56180000
    25  H          0.61100000       0.01600000       0.61400000
    26  H          0.11100000       0.48400000       0.38600000
    27  H          0.38900000       0.51600000       0.88600000
    28  H          0.88900000       0.98400000       0.11400000
    29  H          0.40700000       0.97300000       0.74500000
    30  H          0.90700000       0.52700000       0.25500000
    31  H          0.59300000       0.47300000       0.75500000
    32  H          0.09300000       0.02700000       0.24500000
    33  H          0.50100000       0.94600000      -0.02700000
    34  H          0.00100000       0.55400000       0.02700000
    35  H          0.49900000       0.44600000       0.52700000
    36  H         -0.00100000       0.05400000       0.47300000
    37  H          0.67000000       0.05300000       0.14300000
    38  H          0.17000000       0.44700000       0.85700000
    39  H          0.33000000       0.55300000       0.35700000
    40  H          0.83000000       0.94700000       0.64300000
    41  H          0.38300000       0.04400000       0.19100000
    42  H          0.88300000       0.45600000       0.80900000
    43  H          0.61700000       0.54400000       0.30900000
    44  H          0.11700000       0.95600000       0.69100000
    45  H          0.23200000       0.12000000       0.80600000
    46  H          0.73200000       0.38000000       0.19400000
    47  H          0.76800000       0.62000000       0.69400000
    48  H          0.26800000       0.88000000       0.30600000
    49  H          0.51700000       0.12400000       0.75600000
    50  H          0.01700000       0.37600000       0.24400000
    51  H          0.48300000       0.62400000       0.74400000
    52  H          0.98300000       0.87600000       0.25600000
    53  H          0.29700000       0.15300000       0.35800000
    54  H          0.79700000       0.34700000       0.64200000
    55  H          0.70300000       0.65300000       0.14200000
    56  H          0.20300000       0.84700000       0.85800000
    57  H          0.50600000       0.18600000       0.15900000
    58  H          0.00600000       0.31400000       0.84100000
    59  H          0.49400000       0.68600000       0.34100000
    60  H         -0.00600000       0.81400000       0.65900000
    61  H          0.59400000       0.27700000       0.77200000
    62  H          0.09400000       0.22300000       0.22800000
    63  H          0.40600000       0.77700000       0.72800000
    64  H          0.90600000       0.72300000       0.27200000
    65  H          0.30600000       0.25300000       0.80000000
    66  H          0.80600000       0.24700000       0.20000000
    67  H          0.69400000       0.75300000       0.70000000
    68  H          0.19400000       0.74700000       0.30000000
    69  H          0.50000000       0.31300000       0.35000000
    70  H         -0.00000000       0.18700000       0.65000000
    71  H          0.50000000       0.81300000       0.15000000
    72  H         -0.00000000       0.68700000       0.85000000
    73  H          0.28800000       0.31600000       0.19000000
    74  H          0.78800000       0.18400000       0.81000000
    75  H          0.71200000       0.81600000       0.31000000
    76  H          0.21200000       0.68400000       0.69000000
    77  H          0.36800000       0.35900000       0.93500000
    78  H          0.86800000       0.14100000       0.06500000
    79  H          0.63200000       0.85900000       0.56500000
    80  H          0.13200000       0.64100000       0.43500000
    81  O          0.63060000      -0.00450000       0.72150000
    82  O          0.13060000       0.50450000       0.27850000
    83  O          0.36940000       0.49550000       0.77850000
    84  O          0.86940000       0.00450000       0.22150000
    85  O          0.58220000       0.06410000       0.23140000
    86  O          0.08220000       0.43590000       0.76860000
    87  O          0.41780000       0.56410000       0.26860000
    88  O          0.91780000       0.93590000       0.73140000
    89  O          0.30450000       0.10730000       0.70950000
    90  O          0.80450000       0.39270000       0.29050000
    91  O          0.69550000       0.60730000       0.79050000
    92  O          0.19550000       0.89270000       0.20950000
    93  O          0.28350000       0.17780000       0.22120000
    94  O          0.78350000       0.32220000       0.77880000
    95  O          0.71650000       0.67780000       0.27880000
    96  O          0.21650000       0.82220000       0.72120000
    97  O          0.51490000       0.25830000       0.69590000
    98  O          0.01490000       0.24170000       0.30410000
    99  O          0.48510000       0.75830000       0.80410000
   100  O         -0.01490000       0.74170000       0.19590000
   101  O          0.51880000       0.33070000       0.21060000
   102  O          0.01880000       0.16930000       0.78940000
   103  O          0.48120000       0.83070000       0.28940000
   104  O          0.98120000       0.66930000       0.71060000
