data_DMFUSC02
_symmetry_space_group_name_H-M    'P1'
_symmetry_Int_Tables_number       1
loop_
_symmetry_equiv_pos_site_id
_symmetry_equiv_pos_as_xyz
1 x,y,z
_cell_length_a                   11.8203
_cell_length_b                   16.4874
_cell_length_c                   8.1502
_cell_angle_alpha                90.0
_cell_angle_beta                 90.0
_cell_angle_gamma                90.0
loop_
_atom_site_label
_atom_site_type_symbol
_atom_site_fract_x
_atom_site_fract_y
_atom_site_fract_z
     1  O          0.29760000       0.92090000       0.50000000
     2  O          0.20240000       0.42090000      -0.00000000
     3  O          0.79760000       0.57910000       0.50000000
     4  O          0.70240000       0.07910000       0.00000000
     5  C          0.70250000       0.86560000       0.80800000
     6  C          0.79750000       0.36560000       0.30800000
     7  C          0.20250000       0.63440000       0.80800000
     8  C          0.29750000       0.13440000       0.30800000
     9  C          0.71340000       0.83080000       0.97300000
    10  C          0.78660000       0.33080000       0.47300000
    11  C          0.21340000       0.66920000       0.97300000
    12  C          0.28660000       0.16920000       0.47300000
    13  C          0.79410000       0.86050000       0.08400000
    14  C          0.70590000       0.36050000       0.58400000
    15  C          0.29410000       0.63950000       0.08400000
    16  C          0.20590000       0.13950000       0.58400000
    17  C          0.80930000       0.82310000       0.23700000
    18  C          0.69070000       0.32310000       0.73700000
    19  C          0.30930000       0.67690000       0.23700000
    20  C          0.19070000       0.17690000       0.73700000
    21  C          0.74500000       0.75820000       0.27700000
    22  C          0.75500000       0.25820000       0.77700000
    23  C          0.24500000       0.74180000       0.27700000
    24  C          0.25500000       0.24180000       0.77700000
    25  C          0.66550000       0.72980000       0.17700000
    26  C          0.83450000       0.22980000       0.67700000
    27  C          0.16550000       0.77020000       0.17700000
    28  C          0.33450000       0.27020000       0.67700000
    29  C          0.64680000       0.76550000       0.02200000
    30  C          0.85320000       0.26550000       0.52200000
    31  C          0.14680000       0.73450000       0.02200000
    32  C          0.35320000       0.23450000       0.52200000
    33  C          0.81250000       0.88510000       0.72700000
    34  C          0.68750000       0.38510000       0.22700000
    35  C          0.31250000       0.61490000       0.72700000
    36  C          0.18750000       0.11490000       0.22700000
    37  C          0.83440000       0.96150000       0.66800000
    38  C          0.66560000       0.46150000       0.16800000
    39  C          0.33440000       0.53850000       0.66800000
    40  C          0.16560000       0.03850000       0.16800000
    41  C          0.93640000       0.97820000       0.58900000
    42  C          0.56360000       0.47820000       0.08900000
    43  C          0.43640000       0.52180000       0.58900000
    44  C          0.06360000       0.02180000       0.08900000
    45  C          0.01710000       0.91960000       0.56600000
    46  C          0.48290000       0.41960000       0.06600000
    47  C          0.51710000       0.58040000       0.56600000
    48  C          0.98290000       0.08040000       0.06600000
    49  C         -0.00470000       0.84520000       0.62600000
    50  C          0.50470000       0.34520000       0.12600000
    51  C          0.49530000       0.65480000       0.62600000
    52  C          0.00470000       0.15480000       0.12600000
    53  C          0.89190000       0.82390000       0.70600000
    54  C          0.60810000       0.32390000       0.20600000
    55  C          0.39190000       0.67610000       0.70600000
    56  C          0.10810000       0.17610000       0.20600000
    57  C          0.60090000       0.88050000       0.73100000
    58  C          0.89910000       0.38050000       0.23100000
    59  C          0.10090000       0.61950000       0.73100000
    60  C          0.39910000       0.11950000       0.23100000
    61  C          0.49520000       0.88380000       0.82200000
    62  C          0.00480000       0.38380000       0.32200000
    63  C         -0.00480000       0.61620000       0.82200000
    64  C          0.50480000       0.11620000       0.32200000
    65  C          0.39550000       0.90040000       0.74800000
    66  C          0.10450000       0.40040000       0.24800000
    67  C          0.89550000       0.59960000       0.74800000
    68  C          0.60450000       0.09960000       0.24800000
    69  C          0.38960000       0.90720000       0.57300000
    70  C          0.11040000       0.40720000       0.07300000
    71  C          0.88960000       0.59280000       0.57300000
    72  C          0.61040000       0.09280000       0.07300000
    73  C          0.49450000       0.90150000       0.47700000
    74  C          0.00550000       0.40150000       0.97700000
    75  C         -0.00550000       0.59850000       0.47700000
    76  C          0.50550000       0.09850000       0.97700000
    77  C          0.59300000       0.89160000       0.55500000
    78  C          0.90700000       0.39160000       0.05500000
    79  C          0.09300000       0.60840000       0.55500000
    80  C          0.40700000       0.10840000       0.05500000
    81  C          0.28660000       0.90850000       0.84600000
    82  C          0.21340000       0.40850000       0.34600000
    83  C          0.78660000       0.59150000       0.84600000
    84  C          0.71340000       0.09150000       0.34600000
    85  C          0.48710000       0.90370000       0.29300000
    86  C          0.01290000       0.40370000       0.79300000
    87  C          0.98710000       0.59630000       0.29300000
    88  C          0.51290000       0.09630000       0.79300000
    89  H          0.84180000       0.90800000       0.05300000
    90  H          0.65820000       0.40800000       0.55300000
    91  H          0.34180000       0.59200000       0.05300000
    92  H          0.15820000       0.09200000       0.55300000
    93  H          0.86670000       0.84500000       0.31600000
    94  H          0.63330000       0.34500000       0.81600000
    95  H          0.36670000       0.65500000       0.31600000
    96  H          0.13330000       0.15500000       0.81600000
    97  H          0.75910000       0.73020000       0.38400000
    98  H          0.74090000       0.23020000       0.88400000
    99  H          0.25910000       0.76980000       0.38400000
   100  H          0.24090000       0.26980000       0.88400000
   101  H          0.61660000       0.68340000       0.21100000
   102  H          0.88340000       0.18340000       0.71100000
   103  H          0.11660000       0.81660000       0.21100000
   104  H          0.38340000       0.31660000       0.71100000
   105  H          0.58720000       0.74390000       0.94600000
   106  H          0.91280000       0.24390000       0.44600000
   107  H          0.08720000       0.75610000       0.94600000
   108  H          0.41280000       0.25610000       0.44600000
   109  H          0.77660000       0.00540000       0.68300000
   110  H          0.72340000       0.50540000       0.18300000
   111  H          0.27660000       0.49460000       0.68300000
   112  H          0.22340000      -0.00540000       0.18300000
   113  H          0.94960000       0.03460000       0.54700000
   114  H          0.55040000       0.53460000       0.04700000
   115  H          0.44960000       0.46540000       0.54700000
   116  H          0.05040000       0.96540000       0.04700000
   117  H          0.08970000       0.93220000       0.50900000
   118  H          0.41030000       0.43220000       0.00900000
   119  H          0.58970000       0.56780000       0.50900000
   120  H          0.91030000       0.06780000       0.00900000
   121  H          0.05390000       0.80200000       0.61000000
   122  H          0.44610000       0.30200000       0.11000000
   123  H          0.55390000       0.69800000       0.61000000
   124  H          0.94610000       0.19800000       0.11000000
   125  H          0.87760000       0.76720000       0.74700000
   126  H          0.62240000       0.26720000       0.24700000
   127  H          0.37760000       0.73280000       0.74700000
   128  H          0.12240000       0.23280000       0.24700000
   129  H          0.49630000       0.87300000       0.94200000
   130  H          0.00370000       0.37300000       0.44200000
   131  H         -0.00370000       0.62700000       0.94200000
   132  H          0.50370000       0.12700000       0.44200000
   133  H          0.66430000       0.89210000       0.48800000
   134  H          0.83570000       0.39210000      -0.01200000
   135  H          0.16430000       0.60790000       0.48800000
   136  H          0.33570000       0.10790000      -0.01200000
   137  H          0.28700000       0.95700000       0.84500000
   138  H          0.21300000       0.45700000       0.34500000
   139  H          0.78700000       0.54300000       0.84500000
   140  H          0.71300000       0.04300000       0.34500000
   141  H          0.22020000       0.88460000       0.78900000
   142  H          0.27980000       0.38460000       0.28900000
   143  H          0.72020000       0.61540000       0.78900000
   144  H          0.77980000       0.11540000       0.28900000
   145  H          0.29370000       0.88520000       0.95800000
   146  H          0.20630000       0.38520000       0.45800000
   147  H          0.79370000       0.61480000       0.95800000
   148  H          0.70630000       0.11480000       0.45800000
   149  H          0.46460000       0.95180000       0.27300000
   150  H          0.03540000       0.45180000       0.77300000
   151  H          0.96460000       0.54820000       0.27300000
   152  H          0.53540000       0.04820000       0.77300000
   153  H          0.56250000       0.89370000       0.24100000
   154  H          0.93750000       0.39370000       0.74100000
   155  H          0.06250000       0.60630000       0.24100000
   156  H          0.43750000       0.10630000       0.74100000
   157  H          0.43130000       0.86310000       0.25100000
   158  H          0.06870000       0.36310000       0.75100000
   159  H          0.93130000       0.63690000       0.25100000
   160  H          0.56870000       0.13690000       0.75100000
