data_DMFUSC
_symmetry_space_group_name_H-M    'P1'
_symmetry_Int_Tables_number       1
loop_
_symmetry_equiv_pos_site_id
_symmetry_equiv_pos_as_xyz
1 x,y,z
_cell_length_a                   8.1562
_cell_length_b                   17.7614
_cell_length_c                   10.9591
_cell_angle_alpha                90.0
_cell_angle_beta                 90.0
_cell_angle_gamma                90.0
loop_
_atom_site_label
_atom_site_type_symbol
_atom_site_fract_x
_atom_site_fract_y
_atom_site_fract_z
     1  C          0.58550000       0.49310000       0.03020000
     2  C          0.08550000       0.00690000       0.96980000
     3  C          0.41450000      -0.00690000       0.46980000
     4  C          0.91450000       0.50690000       0.53020000
     5  C          0.42030000       0.48610000       0.97520000
     6  C          0.92030000       0.01390000       0.02480000
     7  C          0.57970000       0.98610000       0.52480000
     8  C          0.07970000       0.51390000       0.47520000
     9  C          0.31920000       0.42600000       0.00480000
    10  C          0.81920000       0.07400000      -0.00480000
    11  C          0.68080000       0.92600000       0.49520000
    12  C          0.18080000       0.57400000       0.50480000
    13  C          0.16400000       0.41790000       0.95260000
    14  C          0.66400000       0.08210000       0.04740000
    15  C          0.83600000       0.91790000       0.54740000
    16  C          0.33600000       0.58210000       0.45260000
    17  C          0.11010000       0.46930000       0.86880000
    18  C          0.61010000       0.03070000       0.13120000
    19  C          0.88990000       0.96930000       0.63120000
    20  C          0.38990000       0.53070000       0.36880000
    21  C          0.20920000       0.52980000       0.83710000
    22  C          0.70920000       0.97020000       0.16290000
    23  C          0.79080000       0.02980000       0.66290000
    24  C          0.29080000       0.47020000       0.33710000
    25  C          0.36290000       0.53850000       0.88920000
    26  C          0.86290000       0.96150000       0.11080000
    27  C          0.63710000       0.03850000       0.61080000
    28  C          0.13710000       0.46150000       0.38920000
    29  C          0.67660000       0.42150000       0.04860000
    30  C          0.17660000       0.07850000       0.95140000
    31  C          0.32340000       0.92150000       0.45140000
    32  C          0.82340000       0.57850000       0.54860000
    33  C          0.75010000       0.40560000       0.16060000
    34  C          0.25010000       0.09440000       0.83940000
    35  C          0.24990000       0.90560000       0.33940000
    36  C          0.74990000       0.59440000       0.66060000
    37  C          0.83190000       0.33720000       0.17880000
    38  C          0.33190000       0.16280000       0.82120000
    39  C          0.16810000       0.83720000       0.32120000
    40  C          0.66810000       0.66280000       0.67880000
    41  C          0.84050000       0.28580000       0.08510000
    42  C          0.34050000       0.21420000       0.91490000
    43  C          0.15950000       0.78580000       0.41490000
    44  C          0.65950000       0.71420000       0.58510000
    45  C          0.76420000       0.30040000       0.97490000
    46  C          0.26420000       0.19960000       0.02510000
    47  C          0.23580000       0.80040000       0.52510000
    48  C          0.73580000       0.69960000       0.47490000
    49  C          0.68540000       0.36790000       0.95630000
    50  C          0.18540000       0.13210000       0.04370000
    51  C          0.31460000       0.86790000       0.54370000
    52  C          0.81460000       0.63210000       0.45630000
    53  C          0.65250000       0.56120000       0.06500000
    54  C          0.15250000       0.93880000       0.93500000
    55  C          0.34750000       0.06120000       0.43500000
    56  C          0.84750000       0.43880000       0.56500000
    57  C          0.55440000       0.62810000       0.08500000
    58  C          0.05440000       0.87190000       0.91500000
    59  C          0.44560000       0.12810000       0.41500000
    60  C          0.94560000       0.37190000       0.58500000
    61  C          0.61770000       0.69300000       0.12590000
    62  C          0.11770000       0.80700000       0.87410000
    63  C          0.38230000       0.19300000       0.37410000
    64  C          0.88230000       0.30700000       0.62590000
    65  C          0.79500000       0.70040000       0.14410000
    66  C          0.29500000       0.79960000       0.85590000
    67  C          0.20500000       0.20040000       0.35590000
    68  C          0.70500000       0.29960000       0.64410000
    69  C          0.89690000       0.63440000       0.12330000
    70  C          0.39690000       0.86560000       0.87670000
    71  C          0.10310000       0.13440000       0.37670000
    72  C          0.60310000       0.36560000       0.62330000
    73  C          0.82750000       0.56870000       0.08860000
    74  C          0.32750000       0.93130000       0.91140000
    75  C          0.17250000       0.06870000       0.41140000
    76  C          0.67250000       0.43130000       0.58860000
    77  C          0.51120000       0.76000000       0.15790000
    78  C          0.01120000       0.74000000       0.84210000
    79  C          0.48880000       0.26000000       0.34210000
    80  C         -0.01120000       0.24000000       0.65790000
    81  C          0.07990000       0.64100000       0.14150000
    82  C          0.57990000       0.85900000       0.85850000
    83  C          0.92010000       0.14100000       0.35850000
    84  C          0.42010000       0.35900000       0.64150000
    85  O          0.85570000       0.76100000       0.17830000
    86  O          0.35570000       0.73900000       0.82170000
    87  O          0.14430000       0.26100000       0.32170000
    88  O          0.64430000       0.23900000       0.67830000
    89  H          0.35800000       0.39400000       0.06600000
    90  H          0.85800000       0.10600000       0.93400000
    91  H          0.64200000       0.89400000       0.43400000
    92  H          0.14200000       0.60600000       0.56600000
    93  H          0.09900000       0.35900000       0.98500000
    94  H          0.59900000       0.14100000       0.01500000
    95  H          0.90100000       0.85900000       0.51500000
    96  H          0.40100000       0.64100000       0.48500000
    97  H         -0.00600000       0.45400000       0.82300000
    98  H          0.49400000       0.04600000       0.17700000
    99  H          0.00600000       0.95400000       0.67700000
   100  H          0.50600000       0.54600000       0.32300000
   101  H          0.17000000       0.56700000       0.77400000
   102  H          0.67000000       0.93300000       0.22600000
   103  H          0.83000000       0.06700000       0.72600000
   104  H          0.33000000       0.43300000       0.27400000
   105  H          0.43600000       0.57800000       0.86300000
   106  H          0.93600000       0.92200000       0.13700000
   107  H          0.56400000       0.07800000       0.63700000
   108  H          0.06400000       0.42200000       0.36300000
   109  H          0.73800000       0.44200000       0.23000000
   110  H          0.23800000       0.05800000       0.77000000
   111  H          0.26200000       0.94200000       0.27000000
   112  H          0.76200000       0.55800000       0.73000000
   113  H          0.88900000       0.32500000       0.26000000
   114  H          0.38900000       0.17500000       0.74000000
   115  H          0.11100000       0.82500000       0.24000000
   116  H          0.61100000       0.67500000       0.76000000
   117  H          0.90300000       0.23800000       0.09700000
   118  H          0.40300000       0.26200000       0.90300000
   119  H          0.09700000       0.73800000       0.40300000
   120  H          0.59700000       0.76200000       0.59700000
   121  H          0.76500000       0.26500000       0.91100000
   122  H          0.26500000       0.23500000       0.08900000
   123  H          0.23500000       0.76500000       0.58900000
   124  H          0.73500000       0.73500000       0.41100000
   125  H          0.63300000       0.38200000       0.88300000
   126  H          0.13300000       0.11800000       0.11700000
   127  H          0.36700000       0.88200000       0.61700000
   128  H          0.86700000       0.61800000       0.38300000
   129  H          0.43500000       0.62200000       0.07600000
   130  H          0.93500000       0.87800000       0.92400000
   131  H          0.56500000       0.12200000       0.42400000
   132  H          0.06500000       0.37800000       0.57600000
   133  H          0.89900000       0.53300000       0.07000000
   134  H          0.39900000       0.96700000       0.93000000
   135  H          0.10100000       0.03300000       0.43000000
   136  H          0.60100000       0.46700000       0.57000000
   137  H          0.41200000       0.76000000       0.12400000
   138  H          0.91200000       0.74000000       0.87600000
   139  H          0.58800000       0.26000000       0.37600000
   140  H          0.08800000       0.24000000       0.62400000
   141  H          0.56400000       0.80800000       0.12400000
   142  H          0.06400000       0.69200000       0.87600000
   143  H          0.43600000       0.30800000       0.37600000
   144  H          0.93600000       0.19200000       0.62400000
   145  H          0.50700000       0.77500000       0.24800000
   146  H          0.00700000       0.72500000       0.75200000
   147  H          0.49300000       0.27500000       0.25200000
   148  H         -0.00700000       0.22500000       0.74800000
   149  H          0.14000000       0.58800000       0.12300000
   150  H          0.64000000       0.91200000       0.87700000
   151  H          0.86000000       0.08800000       0.37700000
   152  H          0.36000000       0.41200000       0.62300000
   153  H          0.11700000       0.68800000       0.09300000
   154  H          0.61700000       0.81200000       0.90700000
   155  H          0.88300000       0.18800000       0.40700000
   156  H          0.38300000       0.31200000       0.59300000
   157  H          0.11400000       0.66400000       0.22600000
   158  H          0.61400000       0.83600000       0.77400000
   159  H          0.88600000       0.16400000       0.27400000
   160  H          0.38600000       0.33600000       0.72600000
