data_DMFUSC01
_symmetry_space_group_name_H-M    'P1'
_symmetry_Int_Tables_number       1
loop_
_symmetry_equiv_pos_site_id
_symmetry_equiv_pos_as_xyz
1 x,y,z
_cell_length_a                   8.5312
_cell_length_b                   18.6775
_cell_length_c                   10.0211
_cell_angle_alpha                90.0
_cell_angle_beta                 90.872
_cell_angle_gamma                90.0
loop_
_atom_site_label
_atom_site_type_symbol
_atom_site_fract_x
_atom_site_fract_y
_atom_site_fract_z
     1  C          0.08230000       0.23980000       0.06820000
     2  C          0.91770000       0.73980000       0.43180000
     3  C          0.91770000       0.76020000       0.93180000
     4  C          0.08230000       0.26020000       0.56820000
     5  C          0.92000000       0.22790000       0.01780000
     6  C          0.08000000       0.72790000       0.48220000
     7  C          0.08000000       0.77210000       0.98220000
     8  C          0.92000000       0.27210000       0.51780000
     9  C          0.83310000       0.16890000       0.06190000
    10  C          0.16690000       0.66890000       0.43810000
    11  C          0.16690000       0.83110000       0.93810000
    12  C          0.83310000       0.33110000       0.56190000
    13  C          0.68250000       0.15720000       0.01260000
    14  C          0.31750000       0.65720000       0.48740000
    15  C          0.31750000       0.84280000      -0.01260000
    16  C          0.68250000       0.34280000       0.51260000
    17  C          0.61590000       0.20260000       0.91930000
    18  C          0.38410000       0.70260000       0.58070000
    19  C          0.38410000       0.79740000       0.08070000
    20  C          0.61590000       0.29740000       0.41930000
    21  C          0.70040000       0.25970000       0.87400000
    22  C          0.29960000       0.75970000       0.62600000
    23  C          0.29960000       0.74030000       0.12600000
    24  C          0.70040000       0.24030000       0.37400000
    25  C          0.85150000       0.27250000       0.92200000
    26  C          0.14850000       0.77250000       0.57800000
    27  C          0.14850000       0.72750000       0.07800000
    28  C          0.85150000       0.22750000       0.42200000
    29  C          0.18010000       0.17470000       0.08680000
    30  C          0.81990000       0.67470000       0.41320000
    31  C          0.81990000       0.82530000       0.91320000
    32  C          0.18010000       0.32530000       0.58680000
    33  C          0.26470000       0.16320000       0.20510000
    34  C          0.73530000       0.66320000       0.29490000
    35  C          0.73530000       0.83680000       0.79490000
    36  C          0.26470000       0.33680000       0.70510000
    37  C          0.35190000       0.10130000       0.22320000
    38  C          0.64810000       0.60130000       0.27680000
    39  C          0.64810000       0.89870000       0.77680000
    40  C          0.35190000       0.39870000       0.72320000
    41  C          0.35610000       0.05040000       0.12360000
    42  C          0.64390000       0.55040000       0.37640000
    43  C          0.64390000       0.94960000       0.87640000
    44  C          0.35610000       0.44960000       0.62360000
    45  C          0.27200000       0.06050000       0.00650000
    46  C          0.72800000       0.56050000       0.49350000
    47  C          0.72800000       0.93950000      -0.00650000
    48  C          0.27200000       0.43950000       0.50650000
    49  C          0.18330000       0.12180000      -0.01130000
    50  C          0.81670000       0.62180000       0.51130000
    51  C          0.81670000       0.87820000       0.01130000
    52  C          0.18330000       0.37820000       0.48870000
    53  C          0.13980000       0.30710000       0.09600000
    54  C          0.86020000       0.80710000       0.40400000
    55  C          0.86020000       0.69290000       0.90400000
    56  C          0.13980000       0.19290000       0.59600000
    57  C          0.03960000       0.36820000       0.11960000
    58  C          0.96040000       0.86820000       0.38040000
    59  C          0.96040000       0.63180000       0.88040000
    60  C          0.03960000       0.13180000       0.61960000
    61  C          0.09490000       0.43390000       0.14850000
    62  C          0.90510000       0.93390000       0.35150000
    63  C          0.90510000       0.56610000       0.85150000
    64  C          0.09490000       0.06610000       0.64850000
    65  C          0.26490000       0.44690000       0.14940000
    66  C          0.73510000       0.94690000       0.35060000
    67  C          0.73510000       0.55310000       0.85060000
    68  C          0.26490000       0.05310000       0.64940000
    69  C          0.36910000       0.38630000       0.12270000
    70  C          0.63090000       0.88630000       0.37730000
    71  C          0.63090000       0.61370000       0.87730000
    72  C          0.36910000       0.11370000       0.62270000
    73  C          0.30810000       0.32050000       0.10280000
    74  C          0.69190000       0.82050000       0.39720000
    75  C          0.69190000       0.67950000       0.89720000
    76  C          0.30810000       0.17950000       0.60280000
    77  C         -0.01120000       0.49490000       0.18500000
    78  C          0.01120000      -0.00510000       0.31500000
    79  C          0.01120000       0.50510000       0.81500000
    80  C         -0.01120000       0.00510000       0.68500000
    81  C          0.54250000       0.40070000       0.11660000
    82  C          0.45750000       0.90070000       0.38340000
    83  C          0.45750000       0.59930000       0.88340000
    84  C          0.54250000       0.09930000       0.61660000
    85  O          0.31830000       0.50760000       0.17360000
    86  O          0.68170000       0.00760000       0.32640000
    87  O          0.68170000       0.49240000       0.82640000
    88  O          0.31830000       0.99240000       0.67360000
    89  H          0.88400000       0.13500000       0.13600000
    90  H          0.11600000       0.63500000       0.36400000
    91  H          0.11600000       0.86500000       0.86400000
    92  H          0.88400000       0.36500000       0.63600000
    93  H          0.62500000       0.11500000       0.05300000
    94  H          0.37500000       0.61500000       0.44700000
    95  H          0.37500000       0.88500000       0.94700000
    96  H          0.62500000       0.38500000       0.55300000
    97  H          0.50700000       0.19300000       0.88900000
    98  H          0.49300000       0.69300000       0.61100000
    99  H          0.49300000       0.80700000       0.11100000
   100  H          0.50700000       0.30700000       0.38900000
   101  H          0.65800000       0.29100000       0.81000000
   102  H          0.34200000       0.79100000       0.69000000
   103  H          0.34200000       0.70900000       0.19000000
   104  H          0.65800000       0.20900000       0.31000000
   105  H          0.91000000       0.31500000       0.89300000
   106  H          0.09000000       0.81500000       0.60700000
   107  H          0.09000000       0.68500000       0.10700000
   108  H          0.91000000       0.18500000       0.39300000
   109  H          0.25900000       0.20200000       0.27800000
   110  H          0.74100000       0.70200000       0.22200000
   111  H          0.74100000       0.79800000       0.72200000
   112  H          0.25900000       0.29800000       0.77800000
   113  H          0.41000000       0.09600000       0.30700000
   114  H          0.59000000       0.59600000       0.19300000
   115  H          0.59000000       0.90400000       0.69300000
   116  H          0.41000000       0.40400000       0.80700000
   117  H          0.42300000       0.00600000       0.13800000
   118  H          0.57700000       0.50600000       0.36200000
   119  H          0.57700000      -0.00600000       0.86200000
   120  H          0.42300000       0.49400000       0.63800000
   121  H          0.27500000       0.02200000       0.93500000
   122  H          0.72500000       0.52200000       0.56500000
   123  H          0.72500000       0.97800000       0.06500000
   124  H          0.27500000       0.47800000       0.43500000
   125  H          0.12300000       0.12800000       0.90600000
   126  H          0.87700000       0.62800000       0.59400000
   127  H          0.87700000       0.87200000       0.09400000
   128  H          0.12300000       0.37200000       0.40600000
   129  H          0.92300000       0.36000000       0.11800000
   130  H          0.07700000       0.86000000       0.38200000
   131  H          0.07700000       0.64000000       0.88200000
   132  H          0.92300000       0.14000000       0.61800000
   133  H          0.37600000       0.28100000       0.08300000
   134  H          0.62400000       0.78100000       0.41700000
   135  H          0.62400000       0.71900000       0.91700000
   136  H          0.37600000       0.21900000       0.58300000
   137  H          0.87600000       0.48500000       0.16600000
   138  H          0.12400000       0.98500000       0.33400000
   139  H          0.12400000       0.51500000       0.83400000
   140  H          0.87600000       0.01500000       0.66600000
   141  H          0.01800000       0.53800000       0.14000000
   142  H          0.98200000       0.03800000       0.36000000
   143  H          0.98200000       0.46200000       0.86000000
   144  H          0.01800000       0.96200000       0.64000000
   145  H          0.00500000       0.50900000       0.28400000
   146  H         -0.00500000       0.00900000       0.21600000
   147  H         -0.00500000       0.49100000       0.71600000
   148  H          0.00500000       0.99100000       0.78400000
   149  H          0.60500000       0.35500000       0.10100000
   150  H          0.39500000       0.85500000       0.39900000
   151  H          0.39500000       0.64500000       0.89900000
   152  H          0.60500000       0.14500000       0.60100000
   153  H          0.57100000       0.43500000       0.04900000
   154  H          0.42900000       0.93500000       0.45100000
   155  H          0.42900000       0.56500000       0.95100000
   156  H          0.57100000       0.06500000       0.54900000
   157  H          0.59000000       0.41800000       0.19600000
   158  H          0.41000000       0.91800000       0.30400000
   159  H          0.41000000       0.58200000       0.80400000
   160  H          0.59000000       0.08200000       0.69600000
