data_DMOXBA06
_symmetry_space_group_name_H-M    'P1'
_symmetry_Int_Tables_number       1
loop_
_symmetry_equiv_pos_site_id
_symmetry_equiv_pos_as_xyz
1 x,y,z
_cell_length_a                   7.75811
_cell_length_b                   8.246011
_cell_length_c                   13.954918
_cell_angle_alpha                90.0
_cell_angle_beta                 96.2626
_cell_angle_gamma                90.0
loop_
_atom_site_label
_atom_site_type_symbol
_atom_site_fract_x
_atom_site_fract_y
_atom_site_fract_z
     1  O          0.45433700       0.41614800       0.78337400
     2  O          0.54566300       0.91614800       0.71662600
     3  O          0.54566300       0.58385200       0.21662600
     4  O          0.45433700       0.08385200       0.28337400
     5  O          0.93707700       0.27189700       0.62792400
     6  O          0.06292300       0.77189700       0.87207600
     7  O          0.06292300       0.72810300       0.37207600
     8  O          0.93707700       0.22810300       0.12792400
     9  O          0.68549700       0.52891700       0.57843400
    10  O          0.31450300       0.02891700       0.92156600
    11  O          0.31450300       0.47108300       0.42156600
    12  O          0.68549700       0.97108300       0.07843400
    13  O          0.47387700       0.34415700       0.58225400
    14  O          0.52612300       0.84415700       0.91774600
    15  O          0.52612300       0.65584300       0.41774600
    16  O          0.47387700       0.15584300       0.08225400
    17  C          0.36747110       0.43558100       0.86806600
    18  C          0.63252890       0.93558100       0.63193400
    19  C          0.63252890       0.56441900       0.13193400
    20  C          0.36747110       0.06441900       0.36806600
    21  H          0.35417000       0.32948900       0.89803500
    22  H          0.64583000       0.82948900       0.60196500
    23  H          0.64583000       0.67051100       0.10196500
    24  H          0.35417000       0.17051100       0.39803500
    25  H          0.25287100       0.48362500       0.85039500
    26  H          0.74712900      -0.01637500       0.64960500
    27  H          0.74712900       0.51637500       0.14960500
    28  H          0.25287100       0.01637500       0.35039500
    29  H          0.43593800       0.50693700       0.91371400
    30  H          0.56406200       0.00693700       0.58628600
    31  H          0.56406200       0.49306300       0.08628600
    32  H          0.43593800      -0.00693700       0.41371400
    33  C          0.61433900       0.34547900       0.79376500
    34  C          0.38566100       0.84547900       0.70623500
    35  C          0.38566100       0.65452100       0.20623500
    36  C          0.61433900       0.15452100       0.29376500
    37  C          0.70120900       0.34350800       0.71040500
    38  C          0.29879100       0.84350800       0.78959500
    39  C          0.29879100       0.65649200       0.28959500
    40  C          0.70120900       0.15649200       0.21040500
    41  C          0.86727900       0.27382900       0.71350500
    42  C          0.13272100       0.77382900       0.78649500
    43  C          0.13272100       0.72617100       0.28649500
    44  C          0.86727900       0.22617100       0.21350500
    45  C          0.10442110       0.19806140       0.62711700
    46  C          0.89557890       0.69806140       0.87288300
    47  C          0.89557890       0.80193860       0.37288300
    48  C          0.10442110       0.30193860       0.12711700
    49  H          0.18958900       0.25705400       0.67101700
    50  H          0.81041100       0.75705400       0.82898300
    51  H          0.81041100       0.74294600       0.32898300
    52  H          0.18958900       0.24294600       0.17101700
    53  H          0.13891100       0.20176100       0.56164600
    54  H          0.86108900       0.70176100       0.93835400
    55  H          0.86108900       0.79823900       0.43835400
    56  H          0.13891100       0.29823900       0.06164600
    57  H          0.09903100       0.08493900       0.64811200
    58  H          0.90096900       0.58493900       0.85188800
    59  H          0.90096900       0.91506100       0.35188800
    60  H          0.09903100       0.41506100       0.14811200
    61  C          0.61600800       0.41157800       0.61796500
    62  C          0.38399200       0.91157800       0.88203500
    63  C          0.38399200       0.58842200       0.38203500
    64  C          0.61600800       0.08842200       0.11796500
    65  C          0.69384100       0.27978100       0.88009500
    66  C          0.30615900       0.77978100       0.61990500
    67  C          0.30615900       0.72021900       0.11990500
    68  C          0.69384100       0.22021900       0.38009500
    69  H          0.63730400       0.28331000       0.93710600
    70  H          0.36269600       0.78331000       0.56289400
    71  H          0.36269600       0.71669000       0.06289400
    72  H          0.63730400       0.21669000       0.43710600
    73  C          0.85723100       0.20917100       0.88095500
    74  C          0.14276900       0.70917100       0.61904500
    75  C          0.14276900       0.79082900       0.11904500
    76  C          0.85723100       0.29082900       0.38095500
    77  H          0.90992100       0.16223400       0.93907500
    78  H          0.09007900       0.66223400       0.56092500
    79  H          0.09007900       0.83776600       0.06092500
    80  H          0.90992100       0.33776600       0.43907500
    81  C          0.94594100       0.20518100       0.79918500
    82  C          0.05405900       0.70518100       0.70081500
    83  C          0.05405900       0.79481900       0.20081500
    84  C          0.94594100       0.29481900       0.29918500
    85  H          0.05748600       0.15685600       0.80156500
    86  H          0.94251400       0.65685600       0.69843500
    87  H          0.94251400       0.84314400       0.19843500
    88  H          0.05748600       0.34314400       0.30156500
    89  H          0.42930000       0.39330000       0.53301500
    90  H          0.57070000       0.89330000       0.96698500
    91  H          0.57070000       0.60670000       0.46698500
    92  H          0.42930000       0.10670000       0.03301500
