data_DMOXBA03
_symmetry_space_group_name_H-M    'P1'
_symmetry_Int_Tables_number       1
loop_
_symmetry_equiv_pos_site_id
_symmetry_equiv_pos_as_xyz
1 x,y,z
_cell_length_a                   8.14233
_cell_length_b                   8.14233
_cell_length_c                   27.681418
_cell_angle_alpha                90.0
_cell_angle_beta                 90.0
_cell_angle_gamma                90.0
loop_
_atom_site_label
_atom_site_type_symbol
_atom_site_fract_x
_atom_site_fract_y
_atom_site_fract_z
     1  O          0.70903000       0.16613000       0.71019800
     2  O          0.29097000       0.83387000       0.21019800
     3  O          0.20903000       0.33387000       0.03980200
     4  O          0.79097000       0.66613000       0.53980200
     5  O          0.83387000       0.29097000       0.78980200
     6  O          0.16613000       0.70903000       0.28980200
     7  O          0.66613000       0.79097000       0.46019800
     8  O          0.33387000       0.20903000       0.96019800
     9  H          0.73350000       0.20950000       0.73401500
    10  H          0.26650000       0.79050000       0.23401500
    11  H          0.23350000       0.29050000       0.01598500
    12  H          0.76650000       0.70950000       0.51598500
    13  H          0.79050000       0.26650000       0.76598500
    14  H          0.20950000       0.73350000       0.26598500
    15  H          0.70950000       0.76650000       0.48401500
    16  H          0.29050000       0.23350000       0.98401500
    17  O          0.52713000       0.36652000       0.70822700
    18  O          0.47287000       0.63348000       0.20822700
    19  O          0.02713000       0.13348000       0.04177300
    20  O          0.97287000       0.86652000       0.54177300
    21  O          0.63348000       0.47287000       0.79177300
    22  O          0.36652000       0.52713000       0.29177300
    23  O          0.86652000       0.97287000       0.45822700
    24  O          0.13348000       0.02713000       0.95822700
    25  O          0.77423000       0.24353000       0.60828600
    26  O          0.22577000       0.75647000       0.10828600
    27  O          0.27423000       0.25647000       0.14171400
    28  O          0.72577000       0.74353000       0.64171400
    29  O          0.75647000       0.22577000       0.89171400
    30  O          0.24353000       0.77423000       0.39171400
    31  O          0.74353000       0.72577000       0.35828600
    32  O          0.25647000       0.27423000       0.85828600
    33  O          0.28383000       0.11763000       0.68526700
    34  O          0.71617000       0.88237000       0.18526700
    35  O          0.78383000       0.38237000       0.06473300
    36  O          0.21617000       0.61763000       0.56473300
    37  O          0.88237000       0.71617000       0.81473300
    38  O          0.11763000       0.28383000       0.31473300
    39  O          0.61763000       0.21617000       0.43526700
    40  O          0.38237000       0.78383000       0.93526700
    41  C          0.52503000       0.17753000       0.64409700
    42  C          0.47497000       0.82247000       0.14409700
    43  C          0.02503000       0.32247000       0.10590300
    44  C          0.97497000       0.67753000       0.60590300
    45  C          0.82247000       0.47497000       0.85590300
    46  C          0.17753000       0.52503000       0.35590300
    47  C          0.67753000       0.97497000       0.39409700
    48  C          0.32247000       0.02503000       0.89409700
    49  C          0.62214000       0.18013000       0.60276800
    50  C          0.37786000       0.81987000       0.10276800
    51  C          0.12214000       0.31987000       0.14723200
    52  C          0.87786000       0.68013000       0.64723200
    53  C          0.81987000       0.37786000       0.89723200
    54  C          0.18013000       0.62214000       0.39723200
    55  C          0.68013000       0.87786000       0.35276800
    56  C          0.31987000       0.12214000       0.85276800
    57  C          0.55795000       0.12254000       0.55922900
    58  C          0.44205000       0.87746000       0.05922900
    59  C          0.05795000       0.37746000       0.19077100
    60  C          0.94205000       0.62254000       0.69077100
    61  C          0.87746000       0.44205000       0.94077100
    62  C          0.12254000       0.55795000       0.44077100
    63  C          0.62254000       0.94205000       0.30922900
    64  C          0.37746000       0.05795000       0.80922900
    65  H          0.62300000       0.12450000       0.52990000
    66  H          0.37700000       0.87550000       0.02990000
    67  H          0.12300000       0.37550000       0.22010000
    68  H          0.87700000       0.62450000       0.72010000
    69  H          0.87550000       0.37700000       0.97010000
    70  H          0.12450000       0.62300000       0.47010000
    71  H          0.62450000       0.87700000       0.27990000
    72  H          0.37550000       0.12300000       0.77990000
    73  C          0.39936000       0.06285000       0.55889110
    74  C          0.60064000       0.93715000       0.05889110
    75  C          0.89936000       0.43715000       0.19110890
    76  C          0.10064000       0.56285000       0.69110890
    77  C          0.93715000       0.60064000       0.94110890
    78  C          0.06285000       0.39936000       0.44110890
    79  C          0.56285000       0.10064000       0.30889110
    80  C          0.43715000       0.89936000       0.80889110
    81  H          0.35470000       0.02200000       0.52870000
    82  H          0.64530000       0.97800000       0.02870000
    83  H          0.85470000       0.47800000       0.22130000
    84  H          0.14530000       0.52200000       0.72130000
    85  H          0.97800000       0.64530000       0.97130000
    86  H          0.02200000       0.35470000       0.47130000
    87  H          0.52200000       0.14530000       0.27870000
    88  H          0.47800000       0.85470000       0.77870000
    89  C          0.30255000       0.05834000       0.59895120
    90  C          0.69745000       0.94166000       0.09895120
    91  C          0.80255000       0.44166000       0.15104880
    92  C          0.19745000       0.55834000       0.65104880
    93  C          0.94166000       0.69745000       0.90104880
    94  C          0.05834000       0.30255000       0.40104880
    95  C          0.55834000       0.19745000       0.34895120
    96  C          0.44166000       0.80255000       0.84895120
    97  H          0.19170000       0.01470000       0.59720000
    98  H          0.80830000      -0.01470000       0.09720000
    99  H          0.69170000       0.48530000       0.15280000
   100  H          0.30830000       0.51470000       0.65280000
   101  H         -0.01470000       0.80830000       0.90280000
   102  H          0.01470000       0.19170000       0.40280000
   103  H          0.51470000       0.30830000       0.34720000
   104  H          0.48530000       0.69170000       0.84720000
   105  C          0.36524000       0.11763000       0.64256900
   106  C          0.63476000       0.88237000       0.14256900
   107  C          0.86524000       0.38237000       0.10743100
   108  C          0.13476000       0.61763000       0.60743100
   109  C          0.88237000       0.63476000       0.85743100
   110  C          0.11763000       0.36524000       0.35743100
   111  C          0.61763000       0.13476000       0.39256900
   112  C          0.38237000       0.86524000       0.89256900
   113  C          0.59203000       0.24103000       0.69057700
   114  C          0.40797000       0.75897000       0.19057700
   115  C          0.09203000       0.25897000       0.05942300
   116  C          0.90797000       0.74103000       0.55942300
   117  C          0.75897000       0.40797000       0.80942300
   118  C          0.24103000       0.59203000       0.30942300
   119  C          0.74103000       0.90797000       0.44057700
   120  C          0.25897000       0.09203000       0.94057700
   121  C          0.87295000       0.26784000       0.56701120
   122  C          0.12705000       0.73216000       0.06701120
   123  C          0.37295000       0.23216000       0.18298880
   124  C          0.62705000       0.76784000       0.68298880
   125  C          0.73216000       0.12705000       0.93298880
   126  C          0.26784000       0.87295000       0.43298880
   127  C          0.76784000       0.62705000       0.31701120
   128  C          0.23216000       0.37295000       0.81701120
   129  H          0.88930000       0.16420000       0.55077000
   130  H          0.11070000       0.83580000       0.05077000
   131  H          0.38930000       0.33580000       0.19923000
   132  H          0.61070000       0.66420000       0.69923000
   133  H          0.83580000       0.11070000       0.94923000
   134  H          0.16420000       0.88930000       0.44923000
   135  H          0.66420000       0.61070000       0.30077000
   136  H          0.33580000       0.38930000       0.80077000
   137  H          0.97830000       0.31230000       0.57673000
   138  H          0.02170000       0.68770000       0.07673000
   139  H          0.47830000       0.18770000       0.17327000
   140  H          0.52170000       0.81230000       0.67327000
   141  H          0.68770000       0.02170000       0.92327000
   142  H          0.31230000       0.97830000       0.42327000
   143  H          0.81230000       0.52170000       0.32673000
   144  H          0.18770000       0.47830000       0.82673000
   145  H          0.81920000       0.34430000       0.54537000
   146  H          0.18080000       0.65570000       0.04537000
   147  H          0.31920000       0.15570000       0.20463000
   148  H          0.68080000       0.84430000       0.70463000
   149  H          0.65570000       0.18080000       0.95463000
   150  H          0.34430000       0.81920000       0.45463000
   151  H          0.84430000       0.68080000       0.29537000
   152  H          0.15570000       0.31920000       0.79537000
   153  C          0.11475000       0.07106000       0.68556150
   154  C          0.88525000       0.92894000       0.18556150
   155  C          0.61475000       0.42894000       0.06443850
   156  C          0.38525000       0.57106000       0.56443850
   157  C          0.92894000       0.88525000       0.81443850
   158  C          0.07106000       0.11475000       0.31443850
   159  C          0.57106000       0.38525000       0.43556150
   160  C          0.42894000       0.61475000       0.93556150
   161  H          0.05181500       0.14730000       0.66551100
   162  H          0.94818500       0.85270000       0.16551100
   163  H          0.55181500       0.35270000       0.08448900
   164  H          0.44818500       0.64730000       0.58448900
   165  H          0.85270000       0.94818500       0.83448900
   166  H          0.14730000       0.05181500       0.33448900
   167  H          0.64730000       0.44818500       0.41551100
   168  H          0.35270000       0.55181500       0.91551100
   169  H          0.07301600       0.07440000       0.71867000
   170  H          0.92698400       0.92560000       0.21867000
   171  H          0.57301600       0.42560000       0.03133000
   172  H          0.42698400       0.57440000       0.53133000
   173  H          0.92560000       0.92698400       0.78133000
   174  H          0.07440000       0.07301600       0.28133000
   175  H          0.57440000       0.42698400       0.46867000
   176  H          0.42560000       0.57301600       0.96867000
   177  H          0.10367000       0.95970000       0.67281100
   178  H          0.89633000       0.04030000       0.17281100
   179  H          0.60367000       0.54030000       0.07718900
   180  H          0.39633000       0.45970000       0.57718900
   181  H          0.04030000       0.89633000       0.82718900
   182  H          0.95970000       0.10367000       0.32718900
   183  H          0.45970000       0.39633000       0.42281100
   184  H          0.54030000       0.60367000       0.92281100
