data_DMOXBA01
_symmetry_space_group_name_H-M    'P1'
_symmetry_Int_Tables_number       1
loop_
_symmetry_equiv_pos_site_id
_symmetry_equiv_pos_as_xyz
1 x,y,z
_cell_length_a                   7.1223
_cell_length_b                   8.9276
_cell_length_c                   13.7888
_cell_angle_alpha                90.0
_cell_angle_beta                 90.0
_cell_angle_gamma                90.0
loop_
_atom_site_label
_atom_site_type_symbol
_atom_site_fract_x
_atom_site_fract_y
_atom_site_fract_z
     1  O          0.05010000       0.94720000       0.28450000
     2  O          0.55010000       0.55280000       0.71550000
     3  O          0.94990000       0.44720000       0.21550000
     4  O          0.44990000       0.05280000       0.78450000
     5  O          0.04820000       0.19060000       0.30160000
     6  O          0.54820000       0.30940000       0.69840000
     7  O          0.95180000       0.69060000       0.19840000
     8  O          0.45180000       0.80940000       0.80160000
     9  O          0.65370000       0.20860000       0.26740000
    10  O          0.15370000       0.29140000       0.73260000
    11  O          0.34630000       0.70860000       0.23260000
    12  O          0.84630000       0.79140000       0.76740000
    13  O          0.10020000       0.96150000       0.07880000
    14  O          0.60020000       0.53850000       0.92120000
    15  O          0.89980000       0.46150000       0.42120000
    16  O          0.39980000       0.03850000       0.57880000
    17  C          0.87090000       0.08500000       0.16920000
    18  C          0.37090000       0.41500000       0.83080000
    19  C          0.12910000       0.58500000       0.33080000
    20  C          0.62910000       0.91500000       0.66920000
    21  C          0.69780000       0.15720000       0.17700000
    22  C          0.19780000       0.34280000       0.82300000
    23  C          0.30220000       0.65720000       0.32300000
    24  C          0.80220000       0.84280000       0.67700000
    25  C          0.57710000       0.16630000       0.09730000
    26  C          0.07710000       0.33370000       0.90270000
    27  C          0.42290000       0.66630000       0.40270000
    28  C          0.92290000       0.83370000       0.59730000
    29  C          0.63390000       0.10400000       0.01130000
    30  C          0.13390000       0.39600000       0.98870000
    31  C          0.36610000       0.60400000       0.48870000
    32  C          0.86610000       0.89600000       0.51130000
    33  C          0.80550000       0.03250000       0.00110000
    34  C          0.30550000       0.46750000      -0.00110000
    35  C          0.19450000       0.53250000       0.49890000
    36  C          0.69450000       0.96750000       0.50110000
    37  C          0.92450000       0.02310000       0.08020000
    38  C          0.42450000       0.47690000       0.91980000
    39  C          0.07550000       0.52310000       0.41980000
    40  C          0.57550000       0.97690000       0.58020000
    41  C         -0.00540000       0.06890000       0.25530000
    42  C          0.49460000       0.43110000       0.74470000
    43  C          0.00540000       0.56890000       0.24470000
    44  C          0.50540000       0.93110000       0.75530000
    45  C          0.51320000       0.32260000       0.27330000
    46  C          0.01320000       0.17740000       0.72670000
    47  C          0.48680000       0.82260000       0.22670000
    48  C         -0.01320000       0.67740000       0.77330000
    49  C          0.16610000       0.89460000      -0.00960000
    50  C          0.66610000       0.60540000       0.00960000
    51  C          0.83390000       0.39460000       0.50960000
    52  C          0.33390000       0.10540000       0.49040000
    53  H         -0.01800000       0.28200000       0.28600000
    54  H          0.48200000       0.21800000       0.71400000
    55  H          0.01800000       0.78200000       0.21400000
    56  H          0.51800000       0.71800000       0.78600000
    57  H          0.45000000       0.20800000       0.10900000
    58  H          0.95000000       0.29200000       0.89100000
    59  H          0.55000000       0.70800000       0.39100000
    60  H          0.05000000       0.79200000       0.60900000
    61  H          0.54100000       0.13000000       0.95300000
    62  H          0.04100000       0.37000000       0.04700000
    63  H          0.45900000       0.63000000       0.54700000
    64  H          0.95900000       0.87000000       0.45300000
    65  H          0.86000000       0.98200000       0.93600000
    66  H          0.36000000       0.51800000       0.06400000
    67  H          0.14000000       0.48200000       0.56400000
    68  H          0.64000000       0.01800000       0.43600000
    69  H          0.36800000       0.27000000       0.25600000
    70  H          0.86800000       0.23000000       0.74400000
    71  H          0.63200000       0.77000000       0.24400000
    72  H          0.13200000       0.73000000       0.75600000
    73  H          0.53100000       0.37200000       0.22200000
    74  H          0.03100000       0.12800000       0.77800000
    75  H          0.46900000       0.87200000       0.27800000
    76  H          0.96900000       0.62800000       0.72200000
    77  H          0.49500000       0.33500000       0.33600000
    78  H         -0.00500000       0.16500000       0.66400000
    79  H          0.50500000       0.83500000       0.16400000
    80  H          0.00500000       0.66500000       0.83600000
    81  H          0.29900000       0.85300000       0.00700000
    82  H          0.79900000       0.64700000      -0.00700000
    83  H          0.70100000       0.35300000       0.49300000
    84  H          0.20100000       0.14700000       0.50700000
    85  H          0.13700000       0.96800000       0.93900000
    86  H          0.63700000       0.53200000       0.06100000
    87  H          0.86300000       0.46800000       0.56100000
    88  H          0.36300000       0.03200000       0.43900000
    89  H          0.07500000       0.80000000       0.97500000
    90  H          0.57500000       0.70000000       0.02500000
    91  H          0.92500000       0.30000000       0.52500000
    92  H          0.42500000       0.20000000       0.47500000
