data_DOLBIR08
_symmetry_space_group_name_H-M    'P1'
_symmetry_Int_Tables_number       1
loop_
_symmetry_equiv_pos_site_id
_symmetry_equiv_pos_as_xyz
1 x,y,z
_cell_length_a                   5.07498
_cell_length_b                   6.16921
_cell_length_c                   5.38808
_cell_angle_alpha                90.0
_cell_angle_beta                 113.3932
_cell_angle_gamma                90.0
loop_
_atom_site_label
_atom_site_type_symbol
_atom_site_fract_x
_atom_site_fract_y
_atom_site_fract_z
     1  O          0.61729190       0.26191180       0.25803160
     2  O          0.38270810       0.76191180       0.74196840
     3  O          0.09057180       0.31904170       0.40311160
     4  O          0.90942820       0.81904170       0.59688840
     5  N          0.64662000       0.18922000       0.76487180
     6  N          0.35338000       0.68922000       0.23512820
     7  H          0.47690000       0.23980000       0.64110000
     8  H          0.52310000       0.73980000       0.35890000
     9  H          0.65480000       0.21280000       0.93450000
    10  H          0.34520000       0.71280000       0.06550000
    11  H          0.66040000       0.04450000       0.73940000
    12  H          0.33960000       0.54450000       0.26060000
    13  C          0.86333000       0.29086190       0.43962000
    14  C          0.13667000       0.79086190       0.56038000
    15  C          0.88702000       0.30372000       0.73172000
    16  C          0.11298000       0.80372000       0.26828000
    17  H          0.07110000       0.23850000       0.85390000
    18  H          0.92890000       0.73850000       0.14610000
    19  H          0.88680000       0.45770000       0.78350000
    20  H          0.11320000       0.95770000       0.21650000
