data_DOLBIR
_symmetry_space_group_name_H-M    'P1'
_symmetry_Int_Tables_number       1
loop_
_symmetry_equiv_pos_site_id
_symmetry_equiv_pos_as_xyz
1 x,y,z
_cell_length_a                   7.0112
_cell_length_b                   7.0112
_cell_length_c                   5.4692
_cell_angle_alpha                90.0
_cell_angle_beta                 90.0
_cell_angle_gamma                120.0
loop_
_atom_site_label
_atom_site_type_symbol
_atom_site_fract_x
_atom_site_fract_y
_atom_site_fract_z
     1  N          0.02949180       0.78299180       0.55182000
     2  N          0.21700820       0.24650000       0.21848667
     3  N          0.75350000       0.97050820       0.88515333
     4  O          0.01190160       0.77859160       0.06262000
     5  O          0.22140840       0.23331000       0.72928667
     6  O          0.76669000      -0.01190160       0.39595333
     7  O         -0.00072000       0.45695180       0.03032000
     8  O          0.54304820       0.54232820       0.69698667
     9  O          0.45767180       0.00072000       0.36365333
    10  C          0.00032000       0.60792000       0.14963000
    11  C          0.39208000       0.39240000       0.81629667
    12  C          0.60760000      -0.00032000       0.48296333
    13  C         -0.02383000       0.57742000       0.42523000
    14  C          0.42258000       0.39875000       0.09189667
    15  C          0.60125000       0.02383000       0.75856333
    16  H          0.82610000       0.46580000       0.46390000
    17  H          0.53420000       0.36030000       0.13056667
    18  H          0.63970000       0.17390000       0.79723333
    19  H          0.07310000       0.52570000       0.48350000
    20  H          0.47430000       0.54740000       0.15016667
    21  H          0.45260000       0.92690000       0.81683333
    22  H          0.94470000       0.83630000       0.50540000
    23  H          0.16370000       0.10840000       0.17206667
    24  H          0.89160000       0.05530000       0.83873333
    25  H          0.02130000       0.75930000       0.71640000
    26  H          0.24070000       0.26200000       0.38306667
    27  H          0.73800000      -0.02130000       0.04973333
    28  H          0.17530000       0.88830000       0.51240000
    29  H          0.11170000       0.28700000       0.17906667
    30  H          0.71300000       0.82470000       0.84573333
