data_DOLBIR07
_symmetry_space_group_name_H-M    'P1'
_symmetry_Int_Tables_number       1
loop_
_symmetry_equiv_pos_site_id
_symmetry_equiv_pos_as_xyz
1 x,y,z
_cell_length_a                   5.08553
_cell_length_b                   11.80188
_cell_length_c                   5.46004
_cell_angle_alpha                90.0
_cell_angle_beta                 111.97301
_cell_angle_gamma                90.0
loop_
_atom_site_label
_atom_site_type_symbol
_atom_site_fract_x
_atom_site_fract_y
_atom_site_fract_z
     1  O          0.69761150       0.09378600       0.26363140
     2  O          0.80238850       0.59378600       0.23636860
     3  O          0.30238850       0.90621400       0.73636860
     4  O          0.19761150       0.40621400       0.76363140
     5  O          0.15466150       0.14227700       0.39332150
     6  O          0.34533850       0.64227700       0.10667850
     7  O          0.84533850       0.85772300       0.60667850
     8  O          0.65466150       0.35772300       0.89332150
     9  N          0.70414180       0.08855800       0.75945170
    10  N          0.79585820       0.58855800       0.74054830
    11  N          0.29585820       0.91144200       0.24054830
    12  N          0.20414180       0.41144200       0.25945170
    13  H          0.53640000       0.11760000       0.64760000
    14  H         -0.03640000       0.61760000       0.85240000
    15  H          0.46360000       0.88240000       0.35240000
    16  H          0.03640000       0.38240000       0.14760000
    17  H          0.72050000       0.10000000       0.92930000
    18  H          0.77950000       0.60000000       0.57070000
    19  H          0.27950000       0.90000000       0.07070000
    20  H          0.22050000       0.40000000       0.42930000
    21  H          0.70980000       0.01290000       0.72930000
    22  H          0.79020000       0.51290000       0.77070000
    23  H          0.29020000       0.98710000       0.27070000
    24  H          0.20980000       0.48710000       0.22930000
    25  C          0.93002000       0.12501800       0.43382190
    26  C          0.56998000       0.62501800       0.06617810
    27  C          0.06998000       0.87498200       0.56617810
    28  C          0.43002000       0.37498200       0.93382190
    29  C          0.94162000       0.14578900       0.71398190
    30  C          0.55838000       0.64578900       0.78601810
    31  C          0.05838000       0.85421100       0.28601810
    32  C          0.44162000       0.35421100       0.21398190
    33  H          0.12400000       0.11720000       0.84270000
    34  H          0.37600000       0.61720000       0.65730000
    35  H          0.87600000       0.88280000       0.15730000
    36  H          0.62400000       0.38280000       0.34270000
    37  H          0.93250000       0.22830000       0.74300000
    38  H          0.56750000       0.72830000       0.75700000
    39  H          0.06750000       0.77170000       0.25700000
    40  H          0.43250000       0.27170000       0.24300000
