data_DONTIJ09
_symmetry_space_group_name_H-M    'P1'
_symmetry_Int_Tables_number       1
loop_
_symmetry_equiv_pos_site_id
_symmetry_equiv_pos_as_xyz
1 x,y,z
_cell_length_a                   11.25286
_cell_length_b                   9.60186
_cell_length_c                   16.40199
_cell_angle_alpha                90.0
_cell_angle_beta                 92.6882
_cell_angle_gamma                90.0
loop_
_atom_site_label
_atom_site_type_symbol
_atom_site_fract_x
_atom_site_fract_y
_atom_site_fract_z
     1  Cl         0.66967800       0.70554900       0.38958500
     2  Cl         0.33032200       0.20554900       0.11041500
     3  Cl         0.33032200       0.29445100       0.61041500
     4  Cl         0.66967800       0.79445100       0.88958500
     5  Cl         0.82944900       0.96817100       0.38135600
     6  Cl         0.17055100       0.46817100       0.11864400
     7  Cl         0.17055100       0.03182900       0.61864400
     8  Cl         0.82944900       0.53182900       0.88135600
     9  O          0.82612000       0.45402000       0.46677120
    10  O          0.17388000       0.95402000       0.03322880
    11  O          0.17388000       0.54598000       0.53322880
    12  O          0.82612000       0.04598000       0.96677120
    13  O          0.47412000       0.73592000       0.52031140
    14  O          0.52588000       0.23592000       0.97968860
    15  O          0.52588000       0.26408000       0.47968860
    16  O          0.47412000       0.76408000       0.02031140
    17  O          0.89552000       0.29333000       0.55567140
    18  O          0.10448000       0.79333000       0.94432860
    19  O          0.10448000       0.70667000       0.44432860
    20  O          0.89552000       0.20667000       0.05567140
    21  O          0.39722000       0.74973000       0.64273150
    22  O          0.60278000       0.24973000       0.85726850
    23  O          0.60278000       0.25027000       0.35726850
    24  O          0.39722000       0.75027000       0.14273150
    25  N          0.63812000       0.42863000       0.71651160
    26  N          0.36188000       0.92863000       0.78348840
    27  N          0.36188000       0.57137000       0.28348840
    28  N          0.63812000       0.07137000       0.21651160
    29  H          0.63539400       0.39074000       0.76526200
    30  H          0.36460600       0.89074000       0.73473800
    31  H          0.36460600       0.60926000       0.23473800
    32  H          0.63539400       0.10926000       0.26526200
    33  C          0.73043000       0.69803000       0.55276180
    34  C          0.26957000       0.19803000       0.94723820
    35  C          0.26957000       0.30197000       0.44723820
    36  C          0.73043000       0.80197000       0.05276180
    37  C          0.82683000       0.38843000       0.54002190
    38  C          0.17317000       0.88843000       0.95997810
    39  C          0.17317000       0.61157000       0.45997810
    40  C          0.82683000       0.11157000       0.04002190
    41  C          0.72743000       0.38713000       0.66772000
    42  C          0.27257000       0.88713000       0.83228000
    43  C          0.27257000       0.61287000       0.33228000
    44  C          0.72743000       0.11287000       0.16772000
    45  C          0.73843000       0.44543000       0.59303180
    46  C          0.26157000       0.94543000       0.90696820
    47  C          0.26157000       0.55457000       0.40696820
    48  C          0.73843000       0.05457000       0.09303180
    49  C          0.78803000       0.75623000       0.62150190
    50  C          0.21197000       0.25623000       0.87849810
    51  C          0.21197000       0.24377000       0.37849810
    52  C          0.78803000       0.74377000       0.12150190
    53  H          0.78203500       0.71124200       0.67274000
    54  H          0.21796500       0.21124200       0.82726000
    55  H          0.21796500       0.28875800       0.32726000
    56  H          0.78203500       0.78875800       0.17274000
    57  C          0.55813000       0.59203000       0.62118190
    58  C          0.44187000       0.09203000       0.87881810
    59  C          0.44187000       0.40797000       0.37881810
    60  C          0.55813000       0.90797000       0.12118190
    61  C          0.74263000       0.76573000       0.47783190
    62  C          0.25737000       0.26573000       0.02216810
    63  C          0.25737000       0.23427000       0.52216810
    64  C          0.74263000       0.73427000       0.97783190
    65  C          0.65773000       0.56433000       0.56279190
    66  C          0.34227000       0.06433000       0.93720810
    67  C          0.34227000       0.43567000       0.43720810
    68  C          0.65773000       0.93567000       0.06279190
    69  H          0.62073300       0.53794700       0.50832900
    70  H          0.37926700       0.03794700      -0.00832900
    71  H          0.37926700       0.46205300       0.49167100
    72  H          0.62073300       0.96205300       0.00832900
    73  C          0.46863000       0.69704000       0.59872000
    74  C          0.53137000       0.19704000       0.90128000
    75  C          0.53137000       0.30296000       0.40128000
    76  C          0.46863000       0.80296000       0.09872000
    77  C          0.55263000       0.52563000       0.69412000
    78  C          0.44737000       0.02563000       0.80588000
    79  C          0.44737000       0.47437000       0.30588000
    80  C          0.55263000       0.97437000       0.19412000
    81  C          0.81143000       0.88563000       0.47432000
    82  C          0.18857000       0.38563000       0.02568000
    83  C          0.18857000       0.11437000       0.52568000
    84  C          0.81143000       0.61437000       0.97432000
    85  C          0.86533000       0.94324000       0.54312000
    86  C          0.13467000       0.44324000       0.95688000
    87  C          0.13467000       0.05676000       0.45688000
    88  C          0.86533000       0.55676000       0.04312000
    89  H          0.90988800       0.02691200       0.53993900
    90  H          0.09011200       0.52691200       0.96006100
    91  H          0.09011200       0.97308800       0.46006100
    92  H          0.90988800       0.47308800       0.03993900
    93  C          0.85343000       0.87674000       0.61752000
    94  C          0.14657000       0.37674000       0.88248000
    95  C          0.14657000       0.12326000       0.38248000
    96  C          0.85343000       0.62326000       0.11752000
    97  H          0.89050300       0.91459200       0.66579900
    98  H          0.10949700       0.41459200       0.83420100
    99  H          0.10949700       0.08540800       0.33420100
   100  H          0.89050300       0.58540800       0.16579900
   101  C          0.80363000       0.27414000       0.70592000
   102  C          0.19637000       0.77414000       0.79408000
   103  C          0.19637000       0.72586000       0.29408000
   104  C          0.80363000       0.22586000       0.20592000
   105  H          0.78201000       0.25990900       0.76247900
   106  H          0.21799000       0.75990900       0.73752100
   107  H          0.21799000       0.74009100       0.23752100
   108  H          0.78201000       0.24009100       0.26247900
   109  H          0.88748100       0.30123300       0.70496100
   110  H          0.11251900       0.80123300       0.79503900
   111  H          0.11251900       0.69876700       0.29503900
   112  H          0.88748100       0.19876700       0.20496100
   113  H          0.79106700       0.18741000       0.67513400
   114  H          0.20893300       0.68741000       0.82486600
   115  H          0.20893300       0.81259000       0.32486600
   116  H          0.79106700       0.31259000       0.17513400
   117  C          0.91133000       0.39974000       0.41153190
   118  C          0.08867000       0.89974000       0.08846810
   119  C          0.08867000       0.60026000       0.58846810
   120  C          0.91133000       0.10026000       0.91153190
   121  H          0.88866200       0.30415400       0.39436500
   122  H          0.11133800       0.80415400       0.10563500
   123  H          0.11133800       0.69584600       0.60563500
   124  H          0.88866200       0.19584600       0.89436500
   125  H         -0.00857700       0.39619500       0.43914600
   126  H          0.00857700       0.89619500       0.06085400
   127  H          0.00857700       0.60380500       0.56085400
   128  H         -0.00857700       0.10380500       0.93914600
   129  C          0.46043000       0.54274000       0.75582000
   130  C          0.53957000       0.04274000       0.74418000
   131  C          0.53957000       0.45726000       0.24418000
   132  C          0.46043000       0.95726000       0.25582000
   133  H          0.46444800       0.46386900       0.79376600
   134  H          0.53555200       0.96386900       0.70623400
   135  H          0.53555200       0.53613100       0.20623400
   136  H          0.46444800       0.03613100       0.29376600
   137  H          0.38140900       0.54597700       0.72807800
   138  H          0.61859100       0.04597700       0.77192200
   139  H          0.61859100       0.45402300       0.27192200
   140  H          0.38140900       0.95402300       0.22807800
   141  H          0.47490200       0.62952200       0.78606600
   142  H          0.52509800       0.12952200       0.71393400
   143  H          0.52509800       0.37047800       0.21393400
   144  H          0.47490200       0.87047800       0.28606600
   145  C          0.39523000       0.84794000       0.49412000
   146  C          0.60477000       0.34794000       0.00588000
   147  C          0.60477000       0.15206000       0.50588000
   148  C          0.39523000       0.65206000      -0.00588000
   149  H          0.40868900       0.87132900       0.43711900
   150  H          0.59131100       0.37132900       0.06288100
   151  H          0.59131100       0.12867100       0.56288100
   152  H          0.40868900       0.62867100       0.93711900
   153  H          0.41086000       0.92982000       0.52854100
   154  H          0.58914000       0.42982000       0.97145900
   155  H          0.58914000       0.07018000       0.47145900
   156  H          0.41086000       0.57018000       0.02854100
   157  H          0.31242700       0.81825100       0.49884800
   158  H          0.68757300       0.31825100       0.00115200
   159  H          0.68757300       0.18174900       0.50115200
   160  H          0.31242700       0.68174900      -0.00115200
   161  C          0.91284000       0.49324000       0.33882000
   162  C          0.08716000      -0.00676000       0.16118000
   163  C          0.08716000       0.50676000       0.66118000
   164  C          0.91284000       0.00676000       0.83882000
   165  H          0.96978100       0.45743600       0.30051700
   166  H          0.03021900       0.95743600       0.19948300
   167  H          0.03021900       0.54256400       0.69948300
   168  H          0.96978100       0.04256400       0.80051700
   169  H          0.93641600       0.58722800       0.35622400
   170  H          0.06358400       0.08722800       0.14377600
   171  H          0.06358400       0.41277200       0.64377600
   172  H          0.93641600       0.91277200       0.85622400
   173  H          0.83324100       0.49623000       0.31188400
   174  H          0.16675900      -0.00377000       0.18811600
   175  H          0.16675900       0.50377000       0.68811600
   176  H          0.83324100       0.00377000       0.81188400
