data_DONTIJ03
_symmetry_space_group_name_H-M    'P1'
_symmetry_Int_Tables_number       1
loop_
_symmetry_equiv_pos_site_id
_symmetry_equiv_pos_as_xyz
1 x,y,z
_cell_length_a                   11.11299
_cell_length_b                   12.568811
_cell_length_c                   13.496911
_cell_angle_alpha                90.0
_cell_angle_beta                 107.0094
_cell_angle_gamma                90.0
loop_
_atom_site_label
_atom_site_type_symbol
_atom_site_fract_x
_atom_site_fract_y
_atom_site_fract_z
     1  Cl         0.93919880       0.18543120       0.38495110
     2  Cl         0.56080120       0.68543120       0.11504890
     3  Cl         0.06080120       0.81456880       0.61504890
     4  Cl         0.43919880       0.31456880       0.88495110
     5  Cl         0.12945120       0.35271110       0.35115900
     6  Cl         0.37054880       0.85271110       0.14884100
     7  Cl         0.87054880       0.64728890       0.64884100
     8  Cl         0.62945120       0.14728890       0.85115900
     9  O          0.37393000       0.23753000       0.31953000
    10  O          0.12607000       0.73753000       0.18047000
    11  O          0.62607000       0.76247000       0.68047000
    12  O          0.87393000       0.26247000       0.81953000
    13  O          0.54854000       0.14235000       0.37303000
    14  O          0.95146000       0.64235000       0.12697000
    15  O          0.45146000       0.85765000       0.62697000
    16  O          0.04854000       0.35765000       0.87303000
    17  O          0.40514000       0.56133000       0.68673000
    18  O          0.09486000       0.06133000       0.81327000
    19  O          0.59486000       0.43867000       0.31327000
    20  O          0.90514000       0.93867000       0.18673000
    21  O          0.27604000       0.50803000       0.53573000
    22  O          0.22396000       0.00803000       0.96427000
    23  O          0.72396000       0.49197000       0.46427000
    24  O          0.77604000      -0.00803000       0.03573000
    25  N          0.64634000       0.30943000       0.65023000
    26  N          0.85366000       0.80943000       0.84977000
    27  N          0.35366000       0.69057000       0.34977000
    28  N          0.14634000       0.19057000       0.15023000
    29  H          0.71520000       0.29370000       0.69990000
    30  H          0.78480000       0.79370000       0.80010000
    31  H          0.28480000       0.70630000       0.30010000
    32  H          0.21520000       0.20630000       0.19990000
    33  C          0.61615000       0.24774000       0.56194000
    34  C          0.88385000       0.74774000       0.93806000
    35  C          0.38385000       0.75226000       0.43806000
    36  C          0.11615000       0.25226000       0.06194000
    37  C          0.50525000       0.26544000       0.48813000
    38  C         -0.00525000       0.76544000       0.01187000
    39  C          0.49475000       0.73456000       0.51187000
    40  C          0.00525000       0.23456000       0.98813000
    41  C          0.40444000       0.33874000       0.50653000
    42  C          0.09556000       0.83874000      -0.00653000
    43  C          0.59556000       0.66126000       0.49347000
    44  C          0.90444000       0.16126000       0.00653000
    45  H          0.36950000       0.38310000       0.44320000
    46  H          0.13050000       0.88310000       0.05680000
    47  H          0.63050000       0.61690000       0.55680000
    48  H          0.86950000       0.11690000       0.94320000
    49  C          0.46095000       0.41264000       0.59813000
    50  C          0.03905000       0.91264000       0.90187000
    51  C          0.53905000       0.58736000       0.40187000
    52  C          0.96095000       0.08736000       0.09813000
    53  C          0.57555000       0.39374000       0.66513000
    54  C          0.92445000       0.89374000       0.83487000
    55  C          0.42445000       0.60626000       0.33487000
    56  C          0.07555000       0.10626000       0.16513000
    57  C          0.29835000       0.27054000       0.52353000
    58  C          0.20165000       0.77054000       0.97647000
    59  C          0.70165000       0.72946000       0.47647000
    60  C          0.79835000       0.22946000       0.02353000
    61  C          0.32575000       0.20404000       0.60984000
    62  C          0.17425000       0.70404000       0.89016000
    63  C          0.67425000       0.79596000       0.39016000
    64  C          0.82575000       0.29596000       0.10984000
    65  H          0.40770000       0.20490000       0.65740000
    66  H          0.09230000       0.70490000       0.84260000
    67  H          0.59230000       0.79510000       0.34260000
    68  H          0.90770000       0.29510000       0.15740000
    69  C          0.23596000       0.13685000       0.62734000
    70  C          0.26404000       0.63685000       0.87266000
    71  C          0.76404000       0.86315000       0.37266000
    72  C          0.73596000       0.36315000       0.12734000
    73  H          0.25620000       0.09340000       0.68760000
    74  H          0.24380000       0.59340000       0.81240000
    75  H          0.74380000       0.90660000       0.31240000
    76  H          0.75620000       0.40660000       0.18760000
    77  C          0.11815000       0.13224000       0.55874000
    78  C          0.38185000       0.63224000       0.94126000
    79  C          0.88185000       0.86776000       0.44126000
    80  C          0.61815000       0.36776000       0.05874000
    81  H          0.05720000       0.08470000       0.57060000
    82  H          0.44280000       0.58470000       0.92940000
    83  H          0.94280000       0.91530000       0.42940000
    84  H          0.55720000       0.41530000       0.07060000
    85  C          0.08785000       0.19634000       0.47264000
    86  C          0.41215000       0.69634000       0.02736000
    87  C          0.91215000       0.80366000       0.52736000
    88  C          0.58785000       0.30366000       0.97264000
    89  C          0.17594000       0.26744000       0.45573000
    90  C          0.32406000       0.76744000       0.04427000
    91  C          0.82406000       0.73256000       0.54427000
    92  C          0.67594000       0.23256000       0.95573000
    93  C          0.71505000       0.16544000       0.56214000
    94  C          0.78495000       0.66544000       0.93786000
    95  C          0.28495000       0.83456000       0.43786000
    96  C          0.21505000       0.33456000       0.06214000
    97  H          0.74780000       0.17790000       0.50310000
    98  H          0.75220000       0.67790000      -0.00310000
    99  H          0.25220000       0.82210000       0.49690000
   100  H          0.24780000       0.32210000       0.00310000
   101  H          0.67770000       0.09420000       0.55660000
   102  H          0.82230000       0.59420000       0.94340000
   103  H          0.32230000       0.90580000       0.44340000
   104  H          0.17770000       0.40580000       0.05660000
   105  H          0.78390000       0.17080000       0.62680000
   106  H          0.71610000       0.67080000       0.87320000
   107  H          0.21610000       0.82920000       0.37320000
   108  H          0.28390000       0.32920000       0.12680000
   109  C          0.46915000       0.21575000       0.38694000
   110  C          0.03085000       0.71575000       0.11306000
   111  C          0.53085000       0.78425000       0.61306000
   112  C          0.96915000       0.28425000       0.88694000
   113  C          0.51757000       0.08518000       0.27466000
   114  C          0.98243000       0.58518000       0.22534000
   115  C          0.48243000       0.91482000       0.72534000
   116  C          0.01757000       0.41482000       0.77466000
   117  H          0.42710000       0.09160000       0.23630000
   118  H          0.07290000       0.59160000       0.26370000
   119  H          0.57290000       0.90840000       0.76370000
   120  H          0.92710000       0.40840000       0.73630000
   121  H          0.54020000       0.00880000       0.28490000
   122  H          0.95980000       0.50880000       0.21510000
   123  H          0.45980000      -0.00880000       0.71510000
   124  H          0.04020000       0.49120000       0.78490000
   125  C          0.59941000       0.14308000       0.21966000
   126  C          0.90059000       0.64308000       0.28034000
   127  C          0.40059000       0.85692000       0.78034000
   128  C          0.09941000       0.35692000       0.71966000
   129  H          0.59750000       0.10480000       0.15580000
   130  H          0.90250000       0.60480000       0.34420000
   131  H          0.40250000       0.89520000       0.84420000
   132  H          0.09750000       0.39520000       0.65580000
   133  H          0.68620000       0.14600000       0.26500000
   134  H          0.81380000       0.64600000       0.23500000
   135  H          0.31380000       0.85400000       0.73500000
   136  H          0.18620000       0.35400000       0.76500000
   137  H          0.56750000       0.21540000       0.20250000
   138  H          0.93250000       0.71540000       0.29750000
   139  H          0.43250000       0.78460000       0.79750000
   140  H          0.06750000       0.28460000       0.70250000
   141  C          0.38355000       0.50084000       0.61474000
   142  C          0.11645000       0.00084000       0.88526000
   143  C          0.61645000       0.49916000       0.38526000
   144  C          0.88355000      -0.00084000       0.11474000
   145  C          0.18986000       0.58985000       0.54465000
   146  C          0.31014000       0.08985000       0.95535000
   147  C          0.81014000       0.41015000       0.45535000
   148  C          0.68986000       0.91015000       0.04465000
   149  H          0.13490000       0.60800000       0.47550000
   150  H          0.36510000       0.10800000       0.02450000
   151  H          0.86510000       0.39200000       0.52450000
   152  H          0.63490000       0.89200000       0.97550000
   153  H          0.23700000       0.65310000       0.57640000
   154  H          0.26300000       0.15310000       0.92360000
   155  H          0.76300000       0.34690000       0.42360000
   156  H          0.73700000       0.84690000       0.07640000
   157  H          0.13870000       0.56440000       0.58780000
   158  H          0.36130000       0.06440000       0.91220000
   159  H          0.86130000       0.43560000       0.41220000
   160  H          0.63870000       0.93560000       0.08780000
   161  C          0.63985000       0.45984000       0.75824000
   162  C          0.86015000       0.95984000       0.74176000
   163  C          0.36015000       0.54016000       0.24176000
   164  C          0.13985000       0.04016000       0.25824000
   165  H          0.58370000       0.46840000       0.80180000
   166  H          0.91630000       0.96840000       0.69820000
   167  H          0.41630000       0.53160000       0.19820000
   168  H          0.08370000       0.03160000       0.30180000
   169  H          0.66030000       0.52980000       0.73570000
   170  H          0.83970000       0.02980000       0.76430000
   171  H          0.33970000       0.47020000       0.26430000
   172  H          0.16030000       0.97020000       0.23570000
   173  H          0.71740000       0.42420000       0.79810000
   174  H          0.78260000       0.92420000       0.70190000
   175  H          0.28260000       0.57580000       0.20190000
   176  H          0.21740000       0.07580000       0.29810000
