data_DONTIJ
_symmetry_space_group_name_H-M    'P1'
_symmetry_Int_Tables_number       1
loop_
_symmetry_equiv_pos_site_id
_symmetry_equiv_pos_as_xyz
1 x,y,z
_cell_length_a                   12.0863
_cell_length_b                   12.0772
_cell_length_c                   13.4252
_cell_angle_alpha                90.0
_cell_angle_beta                 116.131
_cell_angle_gamma                90.0
loop_
_atom_site_label
_atom_site_type_symbol
_atom_site_fract_x
_atom_site_fract_y
_atom_site_fract_z
     1  Cl         0.64941000       0.38691000       0.83681000
     2  Cl         0.35059000       0.88691000       0.66319000
     3  Cl         0.35059000       0.61309000       0.16319000
     4  Cl         0.64941000       0.11309000       0.33681000
     5  Cl         0.36571000       0.35011000       0.74861000
     6  Cl         0.63429000       0.85011000       0.75139000
     7  Cl         0.63429000       0.64989000       0.25139000
     8  Cl         0.36571000       0.14989000       0.24861000
     9  O          0.12402000       0.72912000       0.69762000
    10  O          0.87598000       0.22912000       0.80238000
    11  O          0.87598000       0.27088000       0.30238000
    12  O          0.12402000       0.77088000       0.19762000
    13  O          0.22822000       0.56991000       0.74811000
    14  O          0.77178000       0.06991000       0.75189000
    15  O          0.77178000       0.43009000       0.25189000
    16  O          0.22822000       0.93009000       0.24811000
    17  O          0.14142000       0.31292000       0.31092000
    18  O          0.85858000       0.81292000       0.18908000
    19  O          0.85858000       0.68708000       0.68908000
    20  O          0.14142000       0.18708000       0.81092000
    21  O          0.23392000       0.29821000       0.49581000
    22  O          0.76608000       0.79821000       0.00419000
    23  O          0.76608000       0.70179000       0.50419000
    24  O          0.23392000       0.20179000      -0.00419000
    25  N          0.05362000       0.64342000       0.36682000
    26  N          0.94638000       0.14342000       0.13318000
    27  N          0.94638000       0.35658000       0.63318000
    28  N          0.05362000       0.85658000       0.86682000
    29  C          0.07382000       0.67662000       0.47202000
    30  C          0.92618000       0.17662000       0.02798000
    31  C          0.92618000       0.32338000       0.52798000
    32  C          0.07382000       0.82338000       0.97202000
    33  C          0.13792000       0.61042000       0.55992000
    34  C          0.86208000       0.11042000       0.94008000
    35  C          0.86208000       0.38958000       0.44008000
    36  C          0.13792000       0.88958000       0.05992000
    37  C          0.19592000       0.50262000       0.54792000
    38  C          0.80408000       0.00262000       0.95208000
    39  C          0.80408000       0.49738000       0.45208000
    40  C          0.19592000      -0.00262000       0.04792000
    41  C          0.14522000       0.46812000       0.42582000
    42  C          0.85478000       0.96812000       0.07418000
    43  C          0.85478000       0.53188000       0.57418000
    44  C          0.14522000       0.03188000       0.92582000
    45  C          0.08302000       0.54032000       0.34312000
    46  C          0.91698000       0.04032000       0.15688000
    47  C          0.91698000       0.45968000       0.65688000
    48  C          0.08302000       0.95968000       0.84312000
    49  C          0.33652000       0.51322000       0.59782000
    50  C          0.66348000       0.01322000       0.90218000
    51  C          0.66348000       0.48678000       0.40218000
    52  C          0.33652000       0.98678000       0.09782000
    53  C          0.38642000       0.59082000       0.55282000
    54  C          0.61358000       0.09082000       0.94718000
    55  C          0.61358000       0.40918000       0.44718000
    56  C          0.38642000       0.90918000       0.05282000
    57  C          0.51252000       0.60583000       0.59242000
    58  C          0.48748000       0.10583000       0.90758000
    59  C          0.48748000       0.39417000       0.40758000
    60  C          0.51252000       0.89417000       0.09242000
    61  C          0.59283000       0.54303000       0.67992000
    62  C          0.40717000       0.04303000       0.82008000
    63  C          0.40717000       0.45697000       0.32008000
    64  C          0.59283000       0.95697000       0.17992000
    65  C          0.54592000       0.46533000       0.72642000
    66  C          0.45408000       0.96533000       0.77358000
    67  C          0.45408000       0.53467000       0.27358000
    68  C          0.54592000       0.03467000       0.22642000
    69  C          0.41802000       0.44902000       0.68622000
    70  C          0.58198000       0.94902000       0.81378000
    71  C          0.58198000       0.55098000       0.31378000
    72  C          0.41802000       0.05098000       0.18622000
    73  C          0.01843000       0.78762000       0.47352000
    74  C          0.98157000       0.28762000       0.02648000
    75  C          0.98157000       0.21238000       0.52648000
    76  C          0.01843000       0.71238000       0.97352000
    77  C          0.15982000       0.64572000       0.67192000
    78  C          0.84018000       0.14572000       0.82808000
    79  C          0.84018000       0.35428000       0.32808000
    80  C          0.15982000       0.85428000       0.17192000
    81  C          0.27593000       0.60153000       0.86332000
    82  C          0.72407000       0.10153000       0.63668000
    83  C          0.72407000       0.39847000       0.13668000
    84  C          0.27593000       0.89847000       0.36332000
    85  C          0.40424000       0.64014000       0.90223000
    86  C          0.59576000       0.14014000       0.59777000
    87  C          0.59576000       0.35986000       0.09777000
    88  C          0.40424000       0.85986000       0.40223000
    89  C          0.17042000       0.35482000       0.40142000
    90  C          0.82958000       0.85482000       0.09858000
    91  C          0.82958000       0.64518000       0.59858000
    92  C          0.17042000       0.14518000       0.90142000
    93  C          0.26663000       0.18542000       0.48583000
    94  C          0.73337000       0.68542000       0.01417000
    95  C          0.73337000       0.81458000       0.51417000
    96  C          0.26663000       0.31458000       0.98583000
    97  C          0.03773000       0.52013000       0.22102000
    98  C          0.96227000       0.02013000       0.27898000
    99  C          0.96227000       0.47987000       0.77898000
   100  C          0.03773000       0.97987000       0.72102000
   101  H          0.01430000       0.68730000       0.31530000
   102  H         -0.01430000       0.18730000       0.18470000
   103  H         -0.01430000       0.31270000       0.68470000
   104  H          0.01430000       0.81270000       0.81530000
   105  H          0.17420000       0.44620000       0.58520000
   106  H          0.82580000       0.94620000       0.91480000
   107  H          0.82580000       0.55380000       0.41480000
   108  H          0.17420000       0.05380000       0.08520000
   109  H          0.33220000       0.63320000       0.49420000
   110  H          0.66780000       0.13320000       0.00580000
   111  H          0.66780000       0.36680000       0.50580000
   112  H          0.33220000       0.86680000      -0.00580000
   113  H          0.54130000       0.66420000       0.55720000
   114  H          0.45870000       0.16420000       0.94280000
   115  H          0.45870000       0.33580000       0.44280000
   116  H          0.54130000       0.83580000       0.05720000
   117  H          0.68730000       0.55630000       0.71330000
   118  H          0.31270000       0.05630000       0.78670000
   119  H          0.31270000       0.44370000       0.28670000
   120  H          0.68730000       0.94370000       0.21330000
   121  H          0.95770000       0.81030000       0.40530000
   122  H          0.04230000       0.31030000       0.09470000
   123  H          0.04230000       0.18970000       0.59470000
   124  H          0.95770000       0.68970000       0.90530000
   125  H          0.07530000       0.84930000       0.49930000
   126  H          0.92470000       0.34930000       0.00070000
   127  H          0.92470000       0.15070000       0.50070000
   128  H          0.07530000       0.65070000      -0.00070000
   129  H          0.96370000       0.78430000       0.51330000
   130  H          0.03630000       0.28430000       0.98670000
   131  H          0.03630000       0.21570000       0.48670000
   132  H          0.96370000       0.71570000       0.01330000
   133  H          0.27630000       0.53030000       0.89830000
   134  H          0.72370000       0.03030000       0.60170000
   135  H          0.72370000       0.46970000       0.10170000
   136  H          0.27630000       0.96970000       0.39830000
   137  H          0.22030000       0.64530000       0.87330000
   138  H          0.77970000       0.14530000       0.62670000
   139  H          0.77970000       0.35470000       0.12670000
   140  H          0.22030000       0.85470000       0.37330000
   141  H          0.44330000       0.66630000      -0.00670000
   142  H          0.55670000       0.16630000       0.50670000
   143  H          0.55670000       0.33370000       0.00670000
   144  H          0.44330000       0.83370000       0.49330000
   145  H          0.41430000       0.72630000       0.84830000
   146  H          0.58570000       0.22630000       0.65170000
   147  H          0.58570000       0.27370000       0.15170000
   148  H          0.41430000       0.77370000       0.34830000
   149  H          0.47330000       0.56630000       0.88930000
   150  H          0.52670000       0.06630000       0.61070000
   151  H          0.52670000       0.43370000       0.11070000
   152  H          0.47330000       0.93370000       0.38930000
   153  H          0.29430000       0.14320000       0.56820000
   154  H          0.70570000       0.64320000       0.93180000
   155  H          0.70570000       0.85680000       0.43180000
   156  H          0.29430000       0.35680000       0.06820000
   157  H          0.29930000       0.18020000       0.43520000
   158  H          0.70070000       0.68020000       0.06480000
   159  H          0.70070000       0.81980000       0.56480000
   160  H          0.29930000       0.31980000       0.93520000
   161  H          0.19330000       0.13720000       0.44820000
   162  H          0.80670000       0.63720000       0.05180000
   163  H          0.80670000       0.86280000       0.55180000
   164  H          0.19330000       0.36280000       0.94820000
   165  H          0.09730000       0.49530000       0.20030000
   166  H          0.90270000      -0.00470000       0.29970000
   167  H          0.90270000       0.50470000       0.79970000
   168  H          0.09730000       0.00470000       0.70030000
   169  H          0.97370000       0.47230000       0.19730000
   170  H          0.02630000       0.97230000       0.30270000
   171  H          0.02630000       0.52770000       0.80270000
   172  H          0.97370000       0.02770000       0.69730000
   173  H         -0.00830000       0.58030000       0.18330000
   174  H          0.00830000       0.08030000       0.31670000
   175  H          0.00830000       0.41970000       0.81670000
   176  H         -0.00830000       0.91970000       0.68330000
