data_DOPLOL
_symmetry_space_group_name_H-M    'P1'
_symmetry_Int_Tables_number       1
loop_
_symmetry_equiv_pos_site_id
_symmetry_equiv_pos_as_xyz
1 x,y,z
_cell_length_a                   7.75017
_cell_length_b                   12.300911
_cell_length_c                   9.51128
_cell_angle_alpha                90.0
_cell_angle_beta                 111.0904
_cell_angle_gamma                90.0
loop_
_atom_site_label
_atom_site_type_symbol
_atom_site_fract_x
_atom_site_fract_y
_atom_site_fract_z
     1  O          0.31660140       0.26336800       0.78765110
     2  O          0.18339860       0.76336800       0.71234890
     3  O          0.68339860       0.73663200       0.21234890
     4  O          0.81660140       0.23663200       0.28765110
     5  O          0.38532140       0.57994800       0.54212100
     6  O          0.11467860       0.07994800       0.95787900
     7  O          0.61467860       0.42005200       0.45787900
     8  O          0.88532140       0.92005200       0.04212100
     9  O          0.64163140       0.66997800       0.60650110
    10  O          0.85836860       0.16997800       0.89349890
    11  O          0.35836860       0.33002200       0.39349890
    12  O          0.14163140       0.83002200       0.10650110
    13  O          0.03841130       0.62581800       0.18045110
    14  O          0.46158870       0.12581800       0.31954890
    15  O          0.96158870       0.37418200       0.81954890
    16  O          0.53841130       0.87418200       0.68045110
    17  O          0.93553150       0.50226900       0.29116110
    18  O          0.56446850       0.00226900       0.20883890
    19  O          0.06446850       0.49773100       0.70883890
    20  O          0.43553150      -0.00226900       0.79116110
    21  N          0.54017160       0.60122900       0.63218120
    22  N          0.95982840       0.10122900       0.86781880
    23  N          0.45982840       0.39877100       0.36781880
    24  N          0.04017160       0.89877100       0.13218120
    25  N          0.84619170       0.67472100       0.89747140
    26  N          0.65380830       0.17472100       0.60252860
    27  N          0.15380830       0.32527900       0.10252860
    28  N          0.34619170       0.82527900       0.39747140
    29  N          0.93188150       0.55036900       0.17736120
    30  N          0.56811850       0.05036900       0.32263880
    31  N          0.06811850       0.44963100       0.82263880
    32  N          0.43188150       0.94963100       0.67736120
    33  N          0.51546160       0.21109100       0.01398120
    34  N         -0.01546160       0.71109100       0.48601880
    35  N          0.48453840       0.78890900      -0.01398120
    36  N          0.01546160       0.28890900       0.51398120
    37  C          0.56799170       0.38124100       0.90523130
    38  C          0.93200830       0.88124100       0.59476870
    39  C          0.43200830       0.61875900       0.09476870
    40  C          0.06799170       0.11875900       0.40523130
    41  C          0.51794170       0.44537100       0.77623130
    42  C         -0.01794170       0.94537100       0.72376870
    43  C          0.48205830       0.55462900       0.22376870
    44  C          0.01794170       0.05462900       0.27623130
    45  C          0.60770170       0.54150100       0.77411130
    46  C          0.89229830       0.04150100       0.72588870
    47  C          0.39229830       0.45849900       0.22588870
    48  C          0.10770170       0.95849900       0.27411130
    49  C          0.75667170       0.58291100       0.90121140
    50  C          0.74332830       0.08291100       0.59878860
    51  C          0.24332830       0.41708900       0.09878860
    52  C          0.25667170       0.91708900       0.40121140
    53  C          0.79577170       0.51642100       0.03272130
    54  C          0.70422830       0.01642100       0.46727870
    55  C          0.20422830       0.48357900       0.96727870
    56  C          0.29577170       0.98357900       0.53272130
    57  C          0.70702170       0.41899100       0.03446130
    58  C          0.79297830       0.91899100       0.46553870
    59  C          0.29297830       0.58100900       0.96553870
    60  C          0.20702170       0.08100900       0.53446130
    61  C          0.45906170       0.27971100       0.89849130
    62  C          0.04093830       0.77971100       0.60150870
    63  C          0.54093830       0.72028900       0.10150870
    64  C          0.95906170       0.22028900       0.39849130
    65  H          0.42620000       0.42221300       0.68971900
    66  H          0.07380000       0.92221300       0.81028100
    67  H          0.57380000       0.57778700       0.31028100
    68  H          0.92620000       0.07778700       0.18971900
    69  H          0.74420000       0.38011400       0.12581900
    70  H          0.75580000       0.88011400       0.37418100
    71  H          0.25580000       0.61988600       0.87418100
    72  H          0.24420000       0.11988600       0.62581900
    73  H          0.81530000       0.71211700       0.81520000
    74  H          0.68470000       0.21211700       0.68480000
    75  H          0.18470000       0.28788300       0.18480000
    76  H          0.31530000       0.78788300       0.31520000
    77  H          0.92830000       0.69821600       0.97920000
    78  H          0.57170000       0.19821600       0.52080000
    79  H          0.07170000       0.30178400       0.02080000
    80  H          0.42830000       0.80178400       0.47920000
    81  H          0.45030000       0.15351600       0.00920000
    82  H          0.04970000       0.65351600       0.49080000
    83  H          0.54970000       0.84648400      -0.00920000
    84  H          0.95030000       0.34648400       0.50920000
    85  H          0.61630000       0.22151600       0.09420000
    86  H          0.88370000       0.72151600       0.40580000
    87  H          0.38370000       0.77848400       0.90580000
    88  H          0.11630000       0.27848400       0.59420000
