data_DOPLOL05
_symmetry_space_group_name_H-M    'P1'
_symmetry_Int_Tables_number       1
loop_
_symmetry_equiv_pos_site_id
_symmetry_equiv_pos_as_xyz
1 x,y,z
_cell_length_a                   13.9684
_cell_length_b                   7.6082
_cell_length_c                   8.6632
_cell_angle_alpha                90.0
_cell_angle_beta                 94.191
_cell_angle_gamma                90.0
loop_
_atom_site_label
_atom_site_type_symbol
_atom_site_fract_x
_atom_site_fract_y
_atom_site_fract_z
     1  C          0.17192000       0.33165000       0.96674000
     2  C          0.82808000       0.83165000       0.53326000
     3  C          0.82808000       0.66835000       0.03326000
     4  C          0.17192000       0.16835000       0.46674000
     5  C          0.17013000       0.49575000       0.03224000
     6  C          0.82987000      -0.00425000       0.46776000
     7  C          0.82987000       0.50425000       0.96776000
     8  C          0.17013000       0.00425000       0.53224000
     9  C          0.24143000       0.61485000       0.01204000
    10  C          0.75857000       0.11485000       0.48796000
    11  C          0.75857000       0.38515000      -0.01204000
    12  C          0.24143000       0.88515000       0.51204000
    13  C          0.32163000       0.57875000       0.92774000
    14  C          0.67837000       0.07875000       0.57226000
    15  C          0.67837000       0.42125000       0.07226000
    16  C          0.32163000       0.92125000       0.42774000
    17  C          0.32072000       0.40595000       0.86534000
    18  C          0.67928000       0.90595000       0.63466000
    19  C          0.67928000       0.59405000       0.13466000
    20  C          0.32072000       0.09405000       0.36534000
    21  C          0.24873000       0.28905000       0.88284000
    22  C          0.75127000       0.78905000       0.61716000
    23  C          0.75127000       0.71095000       0.11716000
    24  C          0.24873000       0.21095000       0.38284000
    25  C          0.09513000       0.19805000       0.97675000
    26  C          0.90487000       0.69805000       0.52325000
    27  C          0.90487000       0.80195000       0.02325000
    28  C          0.09513000       0.30195000       0.47675000
    29  N          0.22862000       0.78685000       0.08084000
    30  N          0.77138000       0.28685000       0.41916000
    31  N          0.77138000       0.21315000       0.91916000
    32  N          0.22862000       0.71315000       0.58084000
    33  N          0.39133000       0.69496000       0.90605000
    34  N          0.60867000       0.19496000       0.59395000
    35  N          0.60867000       0.30504000       0.09395000
    36  N          0.39133000       0.80504000       0.40605000
    37  N          0.39693000       0.34475000       0.77444000
    38  N          0.60307000       0.84475000       0.72556000
    39  N          0.60307000       0.65525000       0.22556000
    40  N          0.39693000       0.15525000       0.27444000
    41  N          0.03623000       0.21195000       0.08795000
    42  N          0.96377000       0.71195000       0.41205000
    43  N          0.96377000       0.78805000       0.91205000
    44  N          0.03623000       0.28805000       0.58795000
    45  O          0.08635170       0.07873000       0.88063000
    46  O          0.91364830       0.57873000       0.61937000
    47  O          0.91364830       0.92127000       0.11937000
    48  O          0.08635170       0.42127000       0.38063000
    49  O          0.28272000       0.90823000       0.05013000
    50  O          0.71728000       0.40823000       0.44987000
    51  O          0.71728000       0.09177000       0.94987000
    52  O          0.28272000       0.59177000       0.55013000
    53  O          0.16362000       0.80823000       0.16493000
    54  O          0.83638000       0.30823000       0.33507000
    55  O          0.83638000       0.19177000       0.83507000
    56  O          0.16362000       0.69177000       0.66493000
    57  O          0.39222000       0.19894000       0.71864000
    58  O          0.60778000       0.69894000       0.78136000
    59  O          0.60778000       0.80106000       0.28136000
    60  O          0.39222000       0.30106000       0.21864000
    61  O          0.46362000       0.43764000       0.75124000
    62  O          0.53638000       0.93764000       0.74876000
    63  O          0.53638000       0.56236000       0.24876000
    64  O          0.46362000       0.06236000       0.25124000
    65  H          0.11821900       0.53130000       0.08630000
    66  H          0.88178100       0.03130000       0.41370000
    67  H          0.88178100       0.46870000       0.91370000
    68  H          0.11821900       0.96870000       0.58630000
    69  H          0.25320000       0.17940000       0.83640000
    70  H          0.74680000       0.67940000       0.66360000
    71  H          0.74680000       0.82060000       0.16360000
    72  H          0.25320000       0.32060000       0.33640000
    73  H          0.44430000       0.66250000       0.85440000
    74  H          0.55570000       0.16250000       0.64560000
    75  H          0.55570000       0.33750000       0.14560000
    76  H          0.44430000       0.83750000       0.35440000
    77  H          0.37930000       0.79350000       0.95040000
    78  H          0.62070000       0.29350000       0.54960000
    79  H          0.62070000       0.20650000       0.04960000
    80  H          0.37930000       0.70650000       0.45040000
    81  H          0.04620000       0.27740000       0.14830000
    82  H          0.95380000       0.77740000       0.35170000
    83  H          0.95380000       0.72260000       0.85170000
    84  H          0.04620000       0.22260000       0.64830000
    85  H          0.98570000       0.09950000       0.08740000
    86  H          0.01430000       0.59950000       0.41260000
    87  H          0.01430000       0.90050000       0.91260000
    88  H          0.98570000       0.40050000       0.58740000
