data_DOPLOL02
_symmetry_space_group_name_H-M    'P1'
_symmetry_Int_Tables_number       1
loop_
_symmetry_equiv_pos_site_id
_symmetry_equiv_pos_as_xyz
1 x,y,z
_cell_length_a                   9.98594
_cell_length_b                   10.75575
_cell_length_c                   15.97346
_cell_angle_alpha                90.0
_cell_angle_beta                 90.0
_cell_angle_gamma                90.0
loop_
_atom_site_label
_atom_site_type_symbol
_atom_site_fract_x
_atom_site_fract_y
_atom_site_fract_z
     1  O          0.11100800       0.53414700       0.41510500
     2  O          0.38899200       0.46585300       0.91510500
     3  O          0.88899200       0.03414700       0.08489500
     4  O          0.61100800       0.96585300       0.58489500
     5  O          0.88899200       0.46585300       0.58489500
     6  O          0.61100800       0.53414700       0.08489500
     7  O          0.11100800       0.96585300       0.91510500
     8  O          0.38899200       0.03414700       0.41510500
     9  O         -0.00739200       0.69232800       0.45377500
    10  O          0.50739200       0.30767200       0.95377500
    11  O          0.00739200       0.19232800       0.04622500
    12  O          0.49260800       0.80767200       0.54622500
    13  O          0.00739200       0.30767200       0.54622500
    14  O          0.49260800       0.69232800       0.04622500
    15  O         -0.00739200       0.80767200       0.95377500
    16  O          0.50739200       0.19232800       0.45377500
    17  O          0.47786800       0.61342800       0.44162500
    18  O          0.02213200       0.38657200       0.94162500
    19  O          0.52213200       0.11342800       0.05837500
    20  O          0.97786800       0.88657200       0.55837500
    21  O          0.52213200       0.38657200       0.55837500
    22  O          0.97786800       0.61342800       0.05837500
    23  O          0.47786800       0.88657200       0.94162500
    24  O          0.02213200       0.11342800       0.44162500
    25  O          0.42050800       0.46420800       0.35873500
    26  O          0.07949200       0.53579200       0.85873500
    27  O          0.57949200       0.96420800       0.14126500
    28  O          0.92050800       0.03579200       0.64126500
    29  O          0.57949200       0.53579200       0.64126500
    30  O          0.92050800       0.46420800       0.14126500
    31  O          0.42050800       0.03579200       0.85873500
    32  O          0.07949200       0.96420800       0.35873500
    33  O          0.94659700       0.20968700       0.24701500
    34  O          0.55340300       0.79031300       0.74701500
    35  O          0.05340300       0.70968700       0.25298500
    36  O          0.44659700       0.29031300       0.75298500
    37  O          0.05340300       0.79031300       0.75298500
    38  O          0.44659700       0.20968700       0.25298500
    39  O          0.94659700       0.29031300       0.74701500
    40  O          0.55340300       0.70968700       0.24701500
    41  N          0.00268900       0.58759800       0.42252500
    42  N          0.49731100       0.41240200       0.92252500
    43  N         -0.00268900       0.08759800       0.07747500
    44  N          0.50268900       0.91240200       0.57747500
    45  N         -0.00268900       0.41240200       0.57747500
    46  N          0.50268900       0.58759800       0.07747500
    47  N          0.00268900       0.91240200       0.92252500
    48  N          0.49731100       0.08759800       0.42252500
    49  N          0.73159100       0.66326800       0.46877600
    50  N          0.76840900       0.33673200       0.96877600
    51  N          0.26840900       0.16326800       0.03122400
    52  N          0.23159100       0.83673200       0.53122400
    53  N          0.26840900       0.33673200       0.53122400
    54  N          0.23159100       0.66326800       0.03122400
    55  N          0.73159100       0.83673200       0.96877600
    56  N          0.76840900       0.16326800       0.46877600
    57  N          0.50640900       0.52588800       0.39465500
    58  N         -0.00640900       0.47411200       0.89465500
    59  N          0.49359100       0.02588800       0.10534500
    60  N          0.00640900       0.97411200       0.60534500
    61  N          0.49359100       0.47411200       0.60534500
    62  N          0.00640900       0.52588800       0.10534500
    63  N          0.50640900       0.97411200       0.89465500
    64  N         -0.00640900       0.02588800       0.39465500
    65  N          0.72823900       0.19128900       0.21450600
    66  N          0.77176100       0.80871100       0.71450600
    67  N          0.27176100       0.69128900       0.28549400
    68  N          0.22823900       0.30871100       0.78549400
    69  N          0.27176100       0.80871100       0.78549400
    70  N          0.22823900       0.19128900       0.28549400
    71  N          0.72823900       0.30871100       0.71450600
    72  N          0.77176100       0.69128900       0.21450600
    73  C          0.79826100       0.35562900       0.30903600
    74  C          0.70173900       0.64437100       0.80903600
    75  C          0.20173900       0.85562900       0.19096400
    76  C          0.29826100       0.14437100       0.69096400
    77  C          0.20173900       0.64437100       0.69096400
    78  C          0.29826100       0.35562900       0.19096400
    79  C          0.79826100       0.14437100       0.80903600
    80  C          0.70173900       0.85562900       0.30903600
    81  C          0.90428100       0.42264900       0.34269600
    82  C          0.59571900       0.57735100       0.84269600
    83  C          0.09571900       0.92264900       0.15730400
    84  C          0.40428100       0.07735100       0.65730400
    85  C          0.09571900       0.57735100       0.65730400
    86  C          0.40428100       0.42264900       0.15730400
    87  C          0.90428100       0.07735100       0.84269600
    88  C          0.59571900       0.92264900       0.34269600
    89  C          0.88250100       0.52462900       0.39340600
    90  C          0.61749900       0.47537100       0.89340600
    91  C          0.11749900       0.02462900       0.10659400
    92  C          0.38250100       0.97537100       0.60659400
    93  C          0.11749900       0.47537100       0.60659400
    94  C          0.38250100       0.52462900       0.10659400
    95  C          0.88250100       0.97537100       0.89340600
    96  C          0.61749900       0.02462900       0.39340600
    97  C          0.75191100       0.56726900       0.41737600
    98  C          0.74808900       0.43273100       0.91737600
    99  C          0.24808900       0.06726900       0.08262400
   100  C          0.25191100       0.93273100       0.58262400
   101  C          0.24808900       0.43273100       0.58262400
   102  C          0.25191100       0.56726900       0.08262400
   103  C          0.75191100       0.93273100       0.91737600
   104  C          0.74808900       0.06726900       0.41737600
   105  C          0.64668100       0.49490900       0.38074600
   106  C          0.85331900       0.50509100       0.88074600
   107  C          0.35331900      -0.00509100       0.11925400
   108  C          0.14668100       0.00509100       0.61925400
   109  C          0.35331900       0.50509100       0.61925400
   110  C          0.14668100       0.49490900       0.11925400
   111  C          0.64668100       0.00509100       0.88074600
   112  C          0.85331900      -0.00509100       0.38074600
   113  C          0.66914100       0.39371900       0.32890600
   114  C          0.83085900       0.60628100       0.82890600
   115  C          0.33085900       0.89371900       0.17109400
   116  C          0.16914100       0.10628100       0.67109400
   117  C          0.33085900       0.60628100       0.67109400
   118  C          0.16914100       0.39371900       0.17109400
   119  C          0.66914100       0.10628100       0.82890600
   120  C          0.83085900       0.89371900       0.32890600
   121  C          0.82946100       0.24665900       0.25442600
   122  C          0.67053900       0.75334100       0.75442600
   123  C          0.17053900       0.74665900       0.24557400
   124  C          0.32946100       0.25334100       0.74557400
   125  C          0.17053900       0.75334100       0.74557400
   126  C          0.32946100       0.24665900       0.24557400
   127  C          0.82946100       0.25334100       0.75442600
   128  C          0.67053900       0.74665900       0.25442600
   129  H          0.59391500       0.35131400       0.30889000
   130  H          0.90608500       0.64868600       0.80889000
   131  H          0.40608500       0.85131400       0.19111000
   132  H          0.09391500       0.14868600       0.69111000
   133  H          0.40608500       0.64868600       0.69111000
   134  H          0.09391500       0.35131400       0.19111000
   135  H          0.59391500       0.14868600       0.80889000
   136  H          0.90608500       0.85131400       0.30889000
   137  H         -0.00658500       0.40061400       0.33149000
   138  H          0.50658500       0.59938600       0.83149000
   139  H          0.00658500       0.90061400       0.16851000
   140  H          0.49341500       0.09938600       0.66851000
   141  H          0.00658500       0.59938600       0.66851000
   142  H          0.49341500       0.40061400       0.16851000
   143  H         -0.00658500       0.09938600       0.83149000
   144  H          0.50658500       0.90061400       0.33149000
   145  H          0.74651700       0.12731500       0.18141000
   146  H          0.75348300       0.87268500       0.68141000
   147  H          0.25348300       0.62731500       0.31859000
   148  H          0.24651700       0.37268500       0.81859000
   149  H          0.25348300       0.87268500       0.81859000
   150  H          0.24651700       0.12731500       0.31859000
   151  H          0.74651700       0.37268500       0.68141000
   152  H          0.75348300       0.62731500       0.18141000
   153  H          0.65131800       0.68451500       0.48341000
   154  H          0.84868200       0.31548500       0.98341000
   155  H          0.34868200       0.18451500       0.01659000
   156  H          0.15131800       0.81548500       0.51659000
   157  H          0.34868200       0.31548500       0.51659000
   158  H          0.15131800       0.68451500       0.01659000
   159  H          0.65131800       0.81548500       0.98341000
   160  H          0.84868200       0.18451500       0.48341000
   161  H          0.64251700       0.21331500       0.22231000
   162  H          0.85748300       0.78668500       0.72231000
   163  H          0.35748300       0.71331500       0.27769000
   164  H          0.14251700       0.28668500       0.77769000
   165  H          0.35748300       0.78668500       0.77769000
   166  H          0.14251700       0.21331500       0.27769000
   167  H          0.64251700       0.28668500       0.72231000
   168  H          0.85748300       0.71331500       0.22231000
   169  H          0.80071800       0.70391600       0.48901100
   170  H          0.69928200       0.29608400       0.98901100
   171  H          0.19928200       0.20391600       0.01098900
   172  H          0.30071800       0.79608400       0.51098900
   173  H          0.19928200       0.29608400       0.51098900
   174  H          0.30071800       0.70391600       0.01098900
   175  H          0.80071800       0.79608400       0.98901100
   176  H          0.69928200       0.20391600       0.48901100
