data_DOPLOL03
_symmetry_space_group_name_H-M    'P1'
_symmetry_Int_Tables_number       1
loop_
_symmetry_equiv_pos_site_id
_symmetry_equiv_pos_as_xyz
1 x,y,z
_cell_length_a                   8.34038
_cell_length_b                   8.86049
_cell_length_c                   23.6862
_cell_angle_alpha                90.0
_cell_angle_beta                 96.5956
_cell_angle_gamma                90.0
loop_
_atom_site_label
_atom_site_type_symbol
_atom_site_fract_x
_atom_site_fract_y
_atom_site_fract_z
     1  O          0.00707160      -0.00731860       0.56781600
     2  O         -0.00707160       0.49268140       0.93218400
     3  O         -0.00707160       0.00731860       0.43218400
     4  O          0.00707160       0.50731860       0.06781600
     5  O          0.18895150       0.05204130       0.63633500
     6  O          0.81104850       0.55204130       0.86366500
     7  O          0.81104850       0.94795870       0.36366500
     8  O          0.18895150       0.44795870       0.13633500
     9  O          0.48106130       0.58643140       0.73544500
    10  O          0.51893870       0.08643140       0.76455500
    11  O          0.51893870       0.41356860       0.26455500
    12  O          0.48106130       0.91356860       0.23544500
    13  O          0.36881140       0.37120130       0.71353500
    14  O          0.63118860       0.87120130       0.78646500
    15  O          0.63118860       0.62879870       0.28646500
    16  O          0.36881140       0.12879870       0.21353500
    17  O          0.78702860       0.51783130       0.53607500
    18  O          0.21297140       0.01783130       0.96392500
    19  O          0.21297140       0.48216870       0.46392500
    20  O          0.78702860       0.98216870       0.03607500
    21  N          0.10666160       0.95695140       0.60762600
    22  N          0.89333840       0.45695140       0.89237400
    23  N          0.89333840       0.04304860       0.39237400
    24  N          0.10666160       0.54304860       0.10762600
    25  N          0.33722170       0.83654160       0.69933600
    26  N          0.66277830       0.33654160       0.80066400
    27  N          0.66277830       0.16345840       0.30066400
    28  N          0.33722170       0.66345840       0.19933600
    29  N          0.37566150       0.50953150       0.70793500
    30  N          0.62433850       0.00953150       0.79206500
    31  N          0.62433850       0.49046850       0.29206500
    32  N          0.37566150      -0.00953150       0.20793500
    33  N          0.93248830       0.30631150       0.55534600
    34  N          0.06751170       0.80631150       0.94465400
    35  N          0.06751170       0.69368850       0.44465400
    36  N          0.93248830       0.19368850       0.05534600
    37  C          0.03291170       0.54569160       0.59494600
    38  C          0.96708830       0.04569160       0.90505400
    39  C          0.96708830       0.45430840       0.40505400
    40  C          0.03291170       0.95430840       0.09494600
    41  C          0.02427170       0.70161170       0.58800600
    42  C          0.97572830       0.20161170       0.91199400
    43  C          0.97572830       0.29838830       0.41199400
    44  C          0.02427170       0.79838830       0.08800600
    45  C          0.12683180       0.79691160       0.62083600
    46  C          0.87316820       0.29691160       0.87916400
    47  C          0.87316820       0.20308840       0.37916400
    48  C          0.12683180       0.70308840       0.12083600
    49  C          0.24638170       0.74462170       0.66453600
    50  C          0.75361830       0.24462170       0.83546400
    51  C          0.75361830       0.25537830       0.33546400
    52  C          0.24638170       0.75537830       0.16453600
    53  C          0.25547170       0.58272170       0.66788600
    54  C          0.74452830       0.08272170       0.83211400
    55  C          0.74452830       0.41727830       0.33211400
    56  C          0.25547170       0.91727830       0.16788600
    57  C          0.15210170       0.48740170       0.63464600
    58  C          0.84789830      -0.01259830       0.86535400
    59  C          0.84789830       0.51259830       0.36535400
    60  C          0.15210170       0.01259830       0.13464600
    61  C          0.90843820       0.45408170       0.55960600
    62  C          0.09156180       0.95408170       0.94039400
    63  C          0.09156180       0.54591830       0.44039400
    64  C          0.90843820       0.04591830       0.05960600
    65  H          0.31920000       0.92820000       0.69628000
    66  H          0.68080000       0.42820000       0.80372000
    67  H          0.68080000       0.07180000       0.30372000
    68  H          0.31920000       0.57180000       0.19628000
    69  H          0.85970000       0.25020000       0.53539000
    70  H          0.14030000       0.75020000       0.96461000
    71  H          0.14030000       0.74980000       0.46461000
    72  H          0.85970000       0.24980000       0.03539000
    73  H          0.16720000       0.38420000       0.64128000
    74  H          0.83280000       0.88420000       0.85872000
    75  H          0.83280000       0.61580000       0.35872000
    76  H          0.16720000       0.11580000       0.14128000
    77  H          0.94780000       0.74220000       0.56028000
    78  H          0.05220000       0.24220000       0.93972000
    79  H          0.05220000       0.25780000       0.43972000
    80  H          0.94780000       0.75780000       0.06028000
    81  H          0.41530000       0.80230000       0.72331000
    82  H          0.58470000       0.30230000       0.77669000
    83  H          0.58470000       0.19770000       0.27669000
    84  H          0.41530000       0.69770000       0.22331000
    85  H          0.01730000       0.26320000       0.57069000
    86  H         -0.01730000       0.76320000       0.92931000
    87  H         -0.01730000       0.73680000       0.42931000
    88  H          0.01730000       0.23680000       0.07069000
    89  O          0.47800160       0.31830140       0.58911500
    90  O          0.52199840       0.81830140       0.91088500
    91  O          0.52199840       0.68169860       0.41088500
    92  O          0.47800160       0.18169860       0.08911500
    93  O          0.67892150       0.36259130       0.65271500
    94  O          0.32107850       0.86259130       0.84728500
    95  O          0.32107850       0.63740870       0.34728500
    96  O          0.67892150       0.13740870       0.15271500
    97  O          0.96702140       0.87936130       0.73778500
    98  O          0.03297860       0.37936130       0.76221500
    99  O          0.03297860       0.12063870       0.26221500
   100  O          0.96702140       0.62063870       0.23778500
   101  O          0.85462140       0.66956130       0.70814500
   102  O          0.14537860       0.16956130       0.79185500
   103  O          0.14537860       0.33043870       0.29185500
   104  O          0.85462140       0.83043870       0.20814500
   105  O          0.31875130       0.85146120       0.51656500
   106  O          0.68124870       0.35146120       0.98343500
   107  O          0.68124870       0.14853880       0.48343500
   108  O          0.31875130       0.64853880       0.01656500
   109  N          0.59283170       0.27489150       0.62208600
   110  N          0.40716830       0.77489150       0.87791400
   111  N          0.40716830       0.72510850       0.37791400
   112  N          0.59283170       0.22510850       0.12208600
   113  N          0.84967170       0.13679170       0.69968600
   114  N          0.15032830       0.63679170       0.80031400
   115  N          0.15032830       0.86320830       0.30031400
   116  N          0.84967170       0.36320830       0.19968600
   117  N          0.86471150       0.80777150       0.70604500
   118  N          0.13528850       0.30777150       0.79395500
   119  N          0.13528850       0.19222850       0.29395500
   120  N          0.86471150       0.69222850       0.20604500
   121  N          0.44595180       0.63378150       0.54300600
   122  N          0.55404820       0.13378150       0.95699400
   123  N          0.55404820       0.36621850       0.45699400
   124  N          0.44595180       0.86621850       0.04300600
   125  C          0.54459170       0.86854170       0.58633600
   126  C          0.45540830       0.36854170       0.91366400
   127  C          0.45540830       0.13145830       0.41366400
   128  C          0.54459170       0.63145830       0.08633600
   129  C          0.52921180       0.02487170       0.58695600
   130  C          0.47078820       0.52487170       0.91304400
   131  C          0.47078820       0.97512830       0.41304400
   132  C          0.52921180       0.47512830       0.08695600
   133  C          0.62566180       0.11279160       0.62500600
   134  C          0.37433820       0.61279160       0.87499400
   135  C          0.37433820       0.88720840       0.37499400
   136  C          0.62566180       0.38720840       0.12500600
   137  C          0.75023170       0.05162170       0.66504600
   138  C          0.24976830       0.55162170       0.83495400
   139  C          0.24976830       0.94837830       0.33495400
   140  C          0.75023170       0.44837830       0.16504600
   141  C          0.75533170       0.88956160       0.66473600
   142  C          0.24466830       0.38956160       0.83526400
   143  C          0.24466830       0.11043840       0.33526400
   144  C          0.75533170       0.61043840       0.16473600
   145  C          0.65685170       0.80163170       0.62651600
   146  C          0.34314830       0.30163170       0.87348400
   147  C          0.34314830       0.19836830       0.37348400
   148  C          0.65685170       0.69836830       0.12651600
   149  C          0.42886170       0.78264170       0.54518600
   150  C          0.57113830       0.28264170       0.95481400
   151  C          0.57113830       0.21735830       0.45481400
   152  C          0.42886170       0.71735830       0.04518600
   153  H          0.45220000       0.07020000       0.56248000
   154  H          0.54780000       0.57020000       0.93752000
   155  H          0.54780000       0.92980000       0.43752000
   156  H          0.45220000       0.42980000       0.06248000
   157  H          0.92930000       0.09920000       0.72199000
   158  H          0.07070000       0.59920000       0.77801000
   159  H          0.07070000       0.90080000       0.27801000
   160  H          0.92930000       0.40080000       0.22199000
   161  H          0.67120000       0.69120000       0.62967000
   162  H          0.32880000       0.19120000       0.87033000
   163  H          0.32880000       0.30880000       0.37033000
   164  H          0.67120000       0.80880000       0.12967000
   165  H          0.37230000       0.58030000       0.52021000
   166  H          0.62770000       0.08030000       0.97979000
   167  H          0.62770000       0.41970000       0.47979000
   168  H          0.37230000       0.91970000       0.02021000
   169  H          0.52730000       0.58930000       0.56081000
   170  H          0.47270000       0.08930000       0.93919000
   171  H          0.47270000       0.41070000       0.43919000
   172  H          0.52730000       0.91070000       0.06081000
   173  H          0.84030000       0.23230000       0.69669000
   174  H          0.15970000       0.73230000       0.80331000
   175  H          0.15970000       0.76770000       0.30331000
   176  H          0.84030000       0.26770000       0.19669000
