data_DOQWEN02
_symmetry_space_group_name_H-M    'P1'
_symmetry_Int_Tables_number       1
loop_
_symmetry_equiv_pos_site_id
_symmetry_equiv_pos_as_xyz
1 x,y,z
_cell_length_a                   5.46608
_cell_length_b                   8.911714
_cell_length_c                   24.0324
_cell_angle_alpha                90.0
_cell_angle_beta                 90.0
_cell_angle_gamma                90.0
loop_
_atom_site_label
_atom_site_type_symbol
_atom_site_fract_x
_atom_site_fract_y
_atom_site_fract_z
     1  O          0.21322000       0.38162140       0.24602500
     2  O          0.28678000       0.61837860       0.74602500
     3  O          0.71322000       0.11837860       0.75397500
     4  O          0.78678000       0.88162140       0.25397500
     5  O          0.83422000       0.08541130       0.17374500
     6  O          0.66578000       0.91458870       0.67374500
     7  O          0.33422000       0.41458870       0.82625500
     8  O          0.16578000       0.58541130       0.32625500
     9  N          0.19993000       0.25903150       0.14349600
    10  N          0.30007000       0.74096850       0.64349600
    11  N          0.69993000       0.24096850       0.85650400
    12  N          0.80007000       0.75903150       0.35650400
    13  O          0.47112000       0.90575860       0.14720500
    14  O          0.02888000       0.09424140       0.64720500
    15  O          0.97112000       0.59424140       0.85279500
    16  O          0.52888000       0.40575860       0.35279500
    17  N          0.54823000       0.39264160       0.11720600
    18  N          0.95177000       0.60735840       0.61720600
    19  N          0.04823000       0.10735840       0.88279400
    20  N          0.45177000       0.89264160       0.38279400
    21  C          0.39333000       0.42139180       0.21036700
    22  C          0.10667000       0.57860820       0.71036700
    23  C          0.89333000       0.07860820       0.78963300
    24  C          0.60667000       0.92139180       0.28963300
    25  C          0.38673000       0.36032180       0.15701700
    26  C          0.11327000       0.63967820       0.65701700
    27  C          0.88673000       0.13967820       0.84298300
    28  C          0.61327000       0.86032180       0.34298300
    29  C          0.80723000       0.05059180       0.12213700
    30  C          0.69277000       0.94940820       0.62213700
    31  C          0.30723000       0.44940820       0.87786300
    32  C          0.19277000       0.55059180       0.37786300
    33  C          0.96653000       0.10746180       0.08004700
    34  C          0.53347000       0.89253820       0.58004700
    35  C          0.46653000       0.39253820       0.91995300
    36  C          0.03347000       0.60746180       0.41995300
    37  C          0.74923000       0.55302000       0.18191800
    38  C          0.75077000       0.44698000       0.68191800
    39  C          0.24923000       0.94698000       0.81808200
    40  C          0.25077000       0.05302000       0.31808200
    41  H          0.87700000       0.61880000       0.18950000
    42  H          0.62300000       0.38120000       0.68950000
    43  H          0.37700000       0.88120000       0.81050000
    44  H          0.12300000       0.11880000       0.31050000
    45  C          0.57943000       0.51872000       0.22270800
    46  C          0.92057000       0.48128000       0.72270800
    47  C          0.07943000       0.98128000       0.77729200
    48  C          0.42057000       0.01872000       0.27729200
    49  H          0.59150000       0.56110000       0.25790000
    50  H          0.90850000       0.43890000       0.75790000
    51  H          0.09150000       0.93890000       0.74210000
    52  H          0.40850000       0.06110000       0.24210000
    53  C          0.93594000       0.06202000       0.02369700
    54  C          0.56406000       0.93798000       0.52369700
    55  C          0.43594000       0.43798000       0.97630300
    56  C          0.06406000       0.56202000       0.47630300
    57  H          0.04120000       0.09830000      -0.00360000
    58  H          0.45880000       0.90170000       0.49640000
    59  H          0.54120000       0.40170000       0.00360000
    60  H          0.95880000       0.59830000       0.50360000
    61  C          0.15693000       0.20572180       0.09349700
    62  C          0.34307000       0.79427820       0.59349700
    63  C          0.65693000       0.29427820       0.90650300
    64  C          0.84307000       0.70572180       0.40650300
    65  H          0.26090000       0.23550000       0.06490000
    66  H          0.23910000       0.76450000       0.56490000
    67  H          0.76090000       0.26450000       0.93510000
    68  H          0.73910000       0.73550000       0.43510000
    69  C          0.75494000       0.96638000       0.00970800
    70  C          0.74506000       0.03362000       0.50970800
    71  C          0.25494000       0.53362000       0.99029200
    72  C          0.24506000       0.46638000       0.49029200
    73  H          0.73610000       0.93770000       0.97270000
    74  H          0.76390000       0.06230000       0.47270000
    75  H          0.23610000       0.56230000       0.02730000
    76  H          0.26390000       0.43770000       0.52730000
    77  C          0.61713000       0.95087810       0.10450800
    78  C          0.88287000       0.04912190       0.60450800
    79  C          0.11713000       0.54912190       0.89549200
    80  C          0.38287000       0.45087810       0.39549200
    81  C          0.59454000       0.90968000       0.05011800
    82  C          0.90546000       0.09032000       0.55011800
    83  C          0.09454000       0.59032000       0.94988200
    84  C          0.40546000       0.40968000       0.44988200
    85  H          0.47150000       0.84330000       0.03970000
    86  H          0.02850000       0.15670000       0.53970000
    87  H          0.97150000       0.65670000       0.96030000
    88  H          0.52850000       0.34330000       0.46030000
    89  C          0.72744000       0.48912000       0.13043800
    90  C          0.77256000       0.51088000       0.63043800
    91  C          0.22744000       0.01088000       0.86956200
    92  C          0.27256000      -0.01088000       0.36956200
    93  H          0.84200000       0.51370000       0.10330000
    94  H          0.65800000       0.48630000       0.60330000
    95  H          0.34200000      -0.01370000       0.89670000
    96  H          0.15800000       0.01370000       0.39670000
    97  C          0.28554000       0.79768000       0.13602800
    98  C          0.21446000       0.20232000       0.63602800
    99  C          0.78554000       0.70232000       0.86397200
   100  C          0.71446000       0.29768000       0.36397200
   101  H          0.18070000       0.83410000       0.10700000
   102  H          0.31930000       0.16590000       0.60700000
   103  H          0.68070000       0.66590000       0.89300000
   104  H          0.81930000       0.33410000       0.39300000
   105  H          0.19090000       0.78080000       0.16910000
   106  H          0.30910000       0.21920000       0.66910000
   107  H          0.69090000       0.71920000       0.83090000
   108  H          0.80910000       0.28080000       0.33090000
   109  H          0.36000000       0.70520000       0.12450000
   110  H          0.14000000       0.29480000       0.62450000
   111  H          0.86000000       0.79480000       0.87550000
   112  H          0.64000000       0.20520000       0.37550000
   113  H          0.21040000       0.44920000       0.27749000
   114  H          0.28960000       0.55080000       0.77749000
   115  H          0.71040000       0.05080000       0.72251000
   116  H          0.78960000       0.94920000       0.22251000
   117  H          0.09330000       0.22220000       0.16967000
   118  H          0.40670000       0.77780000       0.66967000
   119  H          0.59330000       0.27780000       0.83033000
   120  H          0.90670000       0.72220000       0.33033000
