data_DOQWEN
_symmetry_space_group_name_H-M    'P1'
_symmetry_Int_Tables_number       1
loop_
_symmetry_equiv_pos_site_id
_symmetry_equiv_pos_as_xyz
1 x,y,z
_cell_length_a                   24.441718
_cell_length_b                   14.054611
_cell_length_c                   6.70625
_cell_angle_alpha                90.0
_cell_angle_beta                 90.0
_cell_angle_gamma                90.0
loop_
_atom_site_label
_atom_site_type_symbol
_atom_site_fract_x
_atom_site_fract_y
_atom_site_fract_z
     1  O          0.52899600       0.36053110       0.89038000
     2  O          0.97100400       0.13946890       0.89038000
     3  O          0.02899600       0.63946890       0.60962000
     4  O          0.47100400       0.86053110       0.60962000
     5  O          0.47100400       0.63946890       0.10962000
     6  O          0.02899600       0.86053110       0.10962000
     7  O          0.97100400       0.36053110       0.39038000
     8  O          0.52899600       0.13946890       0.39038000
     9  O          0.55646600       0.44875110       0.22062000
    10  O          0.94353400       0.05124890       0.22062000
    11  O          0.05646600       0.55124890       0.27938000
    12  O          0.44353400       0.94875110       0.27938000
    13  O          0.44353400       0.55124890       0.77938000
    14  O          0.05646600       0.94875110       0.77938000
    15  O          0.94353400       0.44875110       0.72062000
    16  O          0.55646600       0.05124890       0.72062000
    17  O          0.54461700       0.56254140       0.67023000
    18  O          0.95538300       0.93745860       0.67023000
    19  O          0.04461700       0.43745860       0.82977000
    20  O          0.45538300       0.06254140       0.82977000
    21  O          0.45538300       0.43745860       0.32977000
    22  O          0.04461700       0.06254140       0.32977000
    23  O          0.95538300       0.56254140       0.17023000
    24  O          0.54461700       0.93745860       0.17023000
    25  N          0.62915800       0.51589130       0.45533000
    26  N          0.87084200       0.98410870       0.45533000
    27  N          0.12915800       0.48410870       0.04467000
    28  N          0.37084200       0.01589130       0.04467000
    29  N          0.37084200       0.48410870       0.54467000
    30  N          0.12915800       0.01589130       0.54467000
    31  N          0.87084200       0.51589130       0.95533000
    32  N          0.62915800       0.98410870       0.95533000
    33  N          0.68985700       0.58947130       0.67893000
    34  N          0.81014300       0.91052870       0.67893000
    35  N          0.18985700       0.41052870       0.82107000
    36  N          0.31014300       0.08947130       0.82107000
    37  N          0.31014300       0.41052870       0.32107000
    38  N          0.18985700       0.08947130       0.32107000
    39  N          0.81014300       0.58947130       0.17893000
    40  N          0.68985700       0.91052870       0.17893000
    41  C          0.65159800       0.42750150       0.16473000
    42  C          0.84840200       0.07249850       0.16473000
    43  C          0.15159800       0.57249850       0.33527000
    44  C          0.34840200       0.92750150       0.33527000
    45  C          0.34840200       0.57249850       0.83527000
    46  C          0.15159800       0.92750150       0.83527000
    47  C          0.84840200       0.42750150       0.66473000
    48  C          0.65159800       0.07249850       0.66473000
    49  C          0.59304900       0.59172160       0.74363000
    50  C          0.90695100       0.90827840       0.74363000
    51  C          0.09304900       0.40827840       0.75637000
    52  C          0.40695100       0.09172160       0.75637000
    53  C          0.40695100       0.40827840       0.25637000
    54  C          0.09304900       0.09172160       0.25637000
    55  C          0.90695100       0.59172160       0.24363000
    56  C          0.59304900       0.90827840       0.24363000
    57  C          0.58365900       0.36550150       0.93197000
    58  C          0.91634100       0.13449850       0.93197000
    59  C          0.08365900       0.63449850       0.56803000
    60  C          0.41634100       0.86550150       0.56803000
    61  C          0.41634100       0.63449850       0.06803000
    62  C          0.08365900       0.86550150       0.06803000
    63  C          0.91634100       0.36550150       0.43197000
    64  C          0.58365900       0.13449850       0.43197000
    65  C          0.66582900       0.47924150       0.33573000
    66  C          0.83417100       0.02075850       0.33573000
    67  C          0.16582900       0.52075850       0.16427000
    68  C          0.33417100       0.97924150       0.16427000
    69  C          0.33417100       0.52075850       0.66427000
    70  C          0.16582900       0.97924150       0.66427000
    71  C          0.83417100       0.47924150       0.83573000
    72  C          0.66582900       0.02075850       0.83573000
    73  H          0.70270000       0.48780000       0.36520000
    74  H          0.79730000       0.01220000       0.36520000
    75  H          0.20270000       0.51220000       0.13480000
    76  H          0.29730000       0.98780000       0.13480000
    77  H          0.29730000       0.51220000       0.63480000
    78  H          0.20270000       0.98780000       0.63480000
    79  H          0.79730000       0.48780000       0.86520000
    80  H          0.70270000       0.01220000       0.86520000
    81  C          0.62452100       0.32669160       0.82026000
    82  C          0.87547900       0.17330840       0.82026000
    83  C          0.12452100       0.67330840       0.67974000
    84  C          0.37547900       0.82669160       0.67974000
    85  C          0.37547900       0.67330840       0.17974000
    86  C          0.12452100       0.82669160       0.17974000
    87  C          0.87547900       0.32669160       0.32026000
    88  C          0.62452100       0.17330840       0.32026000
    89  H          0.61600000       0.29300000       0.70500000
    90  H          0.88400000       0.20700000       0.70500000
    91  H          0.11600000       0.70700000       0.79500000
    92  H          0.38400000       0.79300000       0.79500000
    93  H          0.38400000       0.70700000       0.29500000
    94  H          0.11600000       0.79300000       0.29500000
    95  H          0.88400000       0.29300000       0.20500000
    96  H          0.61600000       0.20700000       0.20500000
    97  C          0.63884900       0.56735150       0.63053000
    98  C          0.86115100       0.93264850       0.63053000
    99  C          0.13884900       0.43264850       0.86947000
   100  C          0.36115100       0.06735150       0.86947000
   101  C          0.36115100       0.43264850       0.36947000
   102  C          0.13884900       0.06735150       0.36947000
   103  C          0.86115100       0.56735150       0.13053000
   104  C          0.63884900       0.93264850       0.13053000
   105  C          0.69283900       0.38687170       0.04244000
   106  C          0.80716100       0.11312830       0.04244000
   107  C          0.19283900       0.61312830       0.45756000
   108  C          0.30716100       0.88687170       0.45756000
   109  C          0.30716100       0.61312830       0.95756000
   110  C          0.19283900       0.88687170       0.95756000
   111  C          0.80716100       0.38687170       0.54244000
   112  C          0.69283900       0.11312830       0.54244000
   113  H          0.72950000       0.39460000       0.07630000
   114  H          0.77050000       0.10540000       0.07630000
   115  H          0.22950000       0.60540000       0.42370000
   116  H          0.27050000       0.89460000       0.42370000
   117  H          0.27050000       0.60540000       0.92370000
   118  H          0.22950000       0.89460000       0.92370000
   119  H          0.77050000       0.39460000       0.57630000
   120  H          0.72950000       0.10540000       0.57630000
   121  C          0.67944110       0.33722170       0.87806000
   122  C          0.82055890       0.16277830       0.87806000
   123  C          0.17944110       0.66277830       0.62194000
   124  C          0.32055890       0.83722170       0.62194000
   125  C          0.32055890       0.66277830       0.12194000
   126  C          0.17944110       0.83722170       0.12194000
   127  C          0.82055890       0.33722170       0.37806000
   128  C          0.67944110       0.16277830       0.37806000
   129  H          0.70690000       0.30950000       0.80160000
   130  H          0.79310000       0.19050000       0.80160000
   131  H          0.20690000       0.69050000       0.69840000
   132  H          0.29310000       0.80950000       0.69840000
   133  H          0.29310000       0.69050000       0.19840000
   134  H          0.20690000       0.80950000       0.19840000
   135  H          0.79310000       0.30950000       0.30160000
   136  H          0.70690000       0.19050000       0.30160000
   137  C          0.51381110       0.31872000       0.70527000
   138  C          0.98618890       0.18128000       0.70527000
   139  C          0.01381110       0.68128000       0.79473000
   140  C          0.48618890       0.81872000       0.79473000
   141  C          0.48618890       0.68128000       0.29473000
   142  C          0.01381110       0.81872000       0.29473000
   143  C          0.98618890       0.31872000       0.20527000
   144  C          0.51381110       0.18128000       0.20527000
   145  H          0.53290000       0.35000000       0.59870000
   146  H          0.96710000       0.15000000       0.59870000
   147  H          0.03290000       0.65000000       0.90130000
   148  H          0.46710000       0.85000000       0.90130000
   149  H          0.46710000       0.65000000       0.40130000
   150  H          0.03290000       0.85000000       0.40130000
   151  H          0.96710000       0.35000000       0.09870000
   152  H          0.53290000       0.15000000       0.09870000
   153  H          0.47510000       0.32540000       0.68610000
   154  H          0.02490000       0.17460000       0.68610000
   155  H          0.97510000       0.67460000       0.81390000
   156  H          0.52490000       0.82540000       0.81390000
   157  H          0.52490000       0.67460000       0.31390000
   158  H          0.97510000       0.82540000       0.31390000
   159  H          0.02490000       0.32540000       0.18610000
   160  H          0.47510000       0.17460000       0.18610000
   161  H          0.52320000       0.25240000       0.70620000
   162  H          0.97680000       0.24760000       0.70620000
   163  H          0.02320000       0.74760000       0.79380000
   164  H          0.47680000       0.75240000       0.79380000
   165  H          0.47680000       0.74760000       0.29380000
   166  H          0.02320000       0.75240000       0.29380000
   167  H          0.97680000       0.25240000       0.20620000
   168  H          0.52320000       0.24760000       0.20620000
   169  C          0.65401110       0.66656160       0.96764000
   170  C          0.84598890       0.83343840       0.96764000
   171  C          0.15401110       0.33343840       0.53236000
   172  C          0.34598890       0.16656160       0.53236000
   173  C          0.34598890       0.33343840       0.03236000
   174  C          0.15401110       0.16656160       0.03236000
   175  C          0.84598890       0.66656160       0.46764000
   176  C          0.65401110       0.83343840       0.46764000
   177  H          0.66050000       0.70160000       0.08280000
   178  H          0.83950000       0.79840000       0.08280000
   179  H          0.16050000       0.29840000       0.41720000
   180  H          0.33950000       0.20160000       0.41720000
   181  H          0.33950000       0.29840000       0.91720000
   182  H          0.16050000       0.20160000       0.91720000
   183  H          0.83950000       0.70160000       0.58280000
   184  H          0.66050000       0.79840000       0.58280000
   185  C          0.69679110       0.63829170       0.84814000
   186  C          0.80320890       0.86170830       0.84814000
   187  C          0.19679110       0.36170830       0.65186000
   188  C          0.30320890       0.13829170       0.65186000
   189  C          0.30320890       0.36170830       0.15186000
   190  C          0.19679110       0.13829170       0.15186000
   191  C          0.80320890       0.63829170       0.34814000
   192  C          0.69679110       0.86170830       0.34814000
   193  H          0.73220000       0.65390000       0.88690000
   194  H          0.76780000       0.84610000       0.88690000
   195  H          0.23220000       0.34610000       0.61310000
   196  H          0.26780000       0.15390000       0.61310000
   197  H          0.26780000       0.34610000       0.11310000
   198  H          0.23220000       0.15390000       0.11310000
   199  H          0.76780000       0.65390000       0.38690000
   200  H          0.73220000       0.84610000       0.38690000
   201  C          0.59529900       0.41582150       0.11213000
   202  C          0.90470100       0.08417850       0.11213000
   203  C          0.09529900       0.58417850       0.38787000
   204  C          0.40470100       0.91582150       0.38787000
   205  C          0.40470100       0.58417850       0.88787000
   206  C          0.09529900       0.91582150       0.88787000
   207  C          0.90470100       0.41582150       0.61213000
   208  C          0.59529900       0.08417850       0.61213000
   209  C          0.60137100       0.64231170       0.91443000
   210  C          0.89862900       0.85768830       0.91443000
   211  C          0.10137100       0.35768830       0.58557000
   212  C          0.39862900       0.14231170       0.58557000
   213  C          0.39862900       0.35768830       0.08557000
   214  C          0.10137100       0.14231170       0.08557000
   215  C          0.89862900       0.64231170       0.41443000
   216  C          0.60137100       0.85768830       0.41443000
   217  H          0.57190000       0.66020000      -0.00610000
   218  H          0.92810000       0.83980000      -0.00610000
   219  H          0.07190000       0.33980000       0.50610000
   220  H          0.42810000       0.16020000       0.50610000
   221  H          0.42810000       0.33980000       0.00610000
   222  H          0.07190000       0.16020000       0.00610000
   223  H          0.92810000       0.66020000       0.49390000
   224  H          0.57190000       0.83980000       0.49390000
   225  H          0.51411300       0.57020000       0.74750000
   226  H          0.98588700       0.92980000       0.74750000
   227  H          0.01411300       0.42980000       0.75250000
   228  H          0.48588700       0.07020000       0.75250000
   229  H          0.48588700       0.42980000       0.25250000
   230  H          0.01411300       0.07020000       0.25250000
   231  H          0.98588700       0.57020000       0.24750000
   232  H          0.51411300       0.92980000       0.24750000
   233  H          0.59321200       0.50171800       0.40540000
   234  H          0.90678800      -0.00171800       0.40540000
   235  H          0.09321200       0.49828200       0.09460000
   236  H          0.40678800       0.00171800       0.09460000
   237  H          0.40678800       0.49828200       0.59460000
   238  H          0.09321200       0.00171800       0.59460000
   239  H          0.90678800       0.50171800       0.90540000
   240  H          0.59321200      -0.00171800       0.90540000
