data_DOQWEN01
_symmetry_space_group_name_H-M    'P1'
_symmetry_Int_Tables_number       1
loop_
_symmetry_equiv_pos_site_id
_symmetry_equiv_pos_as_xyz
1 x,y,z
_cell_length_a                   10.25121
_cell_length_b                   8.77509
_cell_length_c                   12.685412
_cell_angle_alpha                90.0
_cell_angle_beta                 96.7119
_cell_angle_gamma                90.0
loop_
_atom_site_label
_atom_site_type_symbol
_atom_site_fract_x
_atom_site_fract_y
_atom_site_fract_z
     1  H          0.37340000       0.01740000       0.24840000
     2  H          0.62660000       0.51740000       0.25160000
     3  H          0.62660000       0.98260000       0.75160000
     4  H          0.37340000       0.48260000       0.74840000
     5  H          0.51030000       0.25640000       0.09730000
     6  H          0.48970000       0.75640000       0.40270000
     7  H          0.48970000       0.74360000       0.90270000
     8  H          0.51030000       0.24360000       0.59730000
     9  N          0.32673000       0.08183000       0.91882000
    10  N          0.67327000       0.58183000       0.58118000
    11  N          0.67327000       0.91817000       0.08118000
    12  N          0.32673000       0.41817000       0.41882000
    13  O          0.39752000       0.08553000       0.20232000
    14  O          0.60248000       0.58553000       0.29768000
    15  O          0.60248000       0.91447000       0.79768000
    16  O          0.39752000       0.41447000       0.70232000
    17  C          0.63003000       0.39793000       0.96613000
    18  C          0.36997000       0.89793000       0.53387000
    19  C          0.36997000       0.60207000       0.03387000
    20  C          0.63003000       0.10207000       0.46613000
    21  O          0.64762000       0.38172000       0.15412000
    22  O          0.35238000       0.88172000       0.34588000
    23  O          0.35238000       0.61828000       0.84588000
    24  O          0.64762000       0.11828000       0.65412000
    25  N          0.47833000       0.22223000       0.02963000
    26  N          0.52167000       0.72223000       0.47037000
    27  N          0.52167000       0.77777000       0.97037000
    28  N          0.47833000       0.27777000       0.52963000
    29  C          0.79843000       0.53894000       0.07503000
    30  C          0.20157000       0.03894000       0.42497000
    31  C          0.20157000       0.46106000       0.92497000
    32  C          0.79843000       0.96106000       0.57503000
    33  O          0.85402000       0.56473000       0.17692000
    34  O          0.14598000       0.06473000       0.32308000
    35  O          0.14598000       0.43527000       0.82308000
    36  O          0.85402000       0.93527000       0.67692000
    37  C          0.37563000       0.11474000       0.01663000
    38  C          0.62437000       0.61474000       0.48337000
    39  C          0.62437000       0.88526000       0.98337000
    40  C          0.37563000       0.38526000       0.51663000
    41  C          0.68933000       0.43584000       0.06893000
    42  C          0.31067000       0.93584000       0.43107000
    43  C          0.31067000       0.56416000       0.93107000
    44  C          0.68933000       0.06416000       0.56893000
    45  C          0.33393000       0.04824000       0.10683000
    46  C          0.66607000       0.54824000       0.39317000
    47  C          0.66607000       0.95176000       0.89317000
    48  C          0.33393000       0.45176000       0.60683000
    49  C          0.52653000       0.29234000       0.95163000
    50  C          0.47347000       0.79234000       0.54837000
    51  C          0.47347000       0.70766000       0.04837000
    52  C          0.52653000       0.20766000       0.45163000
    53  H          0.49000000       0.27100000       0.88260000
    54  H          0.51000000       0.77100000       0.61740000
    55  H          0.51000000       0.72900000       0.11740000
    56  H          0.49000000       0.22900000       0.38260000
    57  C          0.83654000       0.60114000       0.98713000
    58  C          0.16346000       0.10114000       0.51287000
    59  C          0.16346000       0.39886000       0.01287000
    60  C          0.83654000       0.89886000       0.48713000
    61  H          0.90750000       0.66780000      -0.00640000
    62  H          0.09250000       0.16780000       0.50640000
    63  H          0.09250000       0.33220000       0.00640000
    64  H          0.90750000       0.83220000       0.49360000
    65  C          0.23073000       0.94746000       0.09313000
    66  C          0.76927000       0.44746000       0.40687000
    67  C          0.76927000       0.05254000       0.90687000
    68  C          0.23073000       0.55254000       0.59313000
    69  H          0.19780000       0.90280000       0.15100000
    70  H          0.80220000       0.40280000       0.34900000
    71  H          0.80220000       0.09720000       0.84900000
    72  H          0.19780000       0.59720000       0.65100000
    73  C          0.67263000       0.46714000       0.87543000
    74  C          0.32737000       0.96714000       0.62457000
    75  C          0.32737000       0.53286000       0.12457000
    76  C          0.67263000       0.03286000       0.37543000
    77  H          0.63170000       0.44250000       0.80820000
    78  H          0.36830000       0.94250000       0.69180000
    79  H          0.36830000       0.55750000       0.19180000
    80  H          0.63170000       0.05750000       0.30820000
    81  C          0.22964000       0.98026000       0.90743000
    82  C          0.77036000       0.48026000       0.59257000
    83  C          0.77036000       0.01974000       0.09257000
    84  C          0.22964000       0.51974000       0.40743000
    85  H          0.19550000       0.95250000       0.83890000
    86  H          0.80450000       0.45250000       0.66110000
    87  H          0.80450000       0.04750000       0.16110000
    88  H          0.19550000       0.54750000       0.33890000
    89  C          0.77264000       0.56894000       0.88583000
    90  C          0.22736000       0.06894000       0.61417000
    91  C          0.22736000       0.43106000       0.11417000
    92  C          0.77264000       0.93106000       0.38583000
    93  H          0.79870000       0.61680000       0.82630000
    94  H          0.20130000       0.11680000       0.67370000
    95  H          0.20130000       0.38320000       0.17370000
    96  H          0.79870000       0.88320000       0.32630000
    97  C          0.17724000       0.91476000      -0.00927000
    98  C          0.82276000       0.41476000       0.50927000
    99  C          0.82276000       0.08524000       0.00927000
   100  C          0.17724000       0.58524000       0.49073000
   101  H          0.10620000       0.84860000       0.97840000
   102  H          0.89380000       0.34860000       0.52160000
   103  H          0.89380000       0.15140000       0.02160000
   104  H          0.10620000       0.65140000       0.47840000
   105  C          0.95614000       0.67404000       0.19263000
   106  C          0.04386000       0.17404000       0.30737000
   107  C          0.04386000       0.32596000       0.80737000
   108  C          0.95614000       0.82596000       0.69263000
   109  H          0.03100000       0.63800000       0.16100000
   110  H          0.96900000       0.13800000       0.33900000
   111  H          0.96900000       0.36200000       0.83900000
   112  H          0.03100000       0.86200000       0.66100000
   113  H          0.97990000       0.68950000       0.26720000
   114  H          0.02010000       0.18950000       0.23280000
   115  H          0.02010000       0.31050000       0.73280000
   116  H          0.97990000       0.81050000       0.76720000
   117  H          0.92640000       0.76850000       0.16000000
   118  H          0.07360000       0.26850000       0.34000000
   119  H          0.07360000       0.23150000       0.84000000
   120  H          0.92640000       0.73150000       0.66000000
