data_DORDUM
_symmetry_space_group_name_H-M    'P1'
_symmetry_Int_Tables_number       1
loop_
_symmetry_equiv_pos_site_id
_symmetry_equiv_pos_as_xyz
1 x,y,z
_cell_length_a                   8.211611
_cell_length_b                   11.510414
_cell_length_c                   11.874618
_cell_angle_alpha                102.0011
_cell_angle_beta                 105.36811
_cell_angle_gamma                102.3499
loop_
_atom_site_label
_atom_site_type_symbol
_atom_site_fract_x
_atom_site_fract_y
_atom_site_fract_z
     1  O         -0.02298000       0.15305000       0.07295000
     2  O          0.02298000       0.84695000       0.92705000
     3  N          0.71159000       0.09926000       0.57146000
     4  N          0.28841000       0.90074000       0.42854000
     5  N          0.12929000       0.03476000       0.15646000
     6  N          0.87071000       0.96524000       0.84354000
     7  H          0.08995400       0.97486000       0.08776600
     8  H          0.91004600       0.02514000       0.91223400
     9  H          0.20201400       0.02655600       0.22157700
    10  H          0.79798600       0.97344400       0.77842300
    11  N          0.34409000       0.20326000       0.76446000
    12  N          0.65591000       0.79674000       0.23554000
    13  N          0.30899000       0.52526000       0.60176000
    14  N          0.69101000       0.47474000       0.39824000
    15  N          0.66639000       0.08126000       0.66946000
    16  N          0.33361000       0.91874000       0.33054000
    17  C          0.47581100       0.33337000       0.59487000
    18  C          0.52418900       0.66663000       0.40513000
    19  C          0.07851100       0.13748000       0.16158000
    20  C          0.92148900       0.86252000       0.83842000
    21  C          0.55871000       0.23007000       0.60007000
    22  C          0.44129000       0.76993000       0.39993000
    23  C          0.26041100       0.42948000       0.49918000
    24  C          0.73958900       0.57052000       0.50082000
    25  C          0.14481100       0.23657000       0.28187000
    26  C          0.85518900       0.76343000       0.71813000
    27  C          0.52711100       0.43288000       0.69547000
    28  C          0.47288900       0.56712000       0.30453000
    29  H          0.62199000       0.44006000       0.76514900
    30  H          0.37801000       0.55994000       0.23485100
    31  C          0.27911000       0.23317000       0.37907000
    32  C          0.72089000       0.76683000       0.62093000
    33  H          0.33043900       0.16648400       0.37132700
    34  H          0.66956100       0.83351600       0.62867300
    35  C          0.12201100       0.42758000       0.39788000
    36  C          0.87798900       0.57242000       0.60212000
    37  H          0.06699800       0.49217000       0.40381200
    38  H          0.93300200       0.50783000       0.59618800
    39  C          0.49621100       0.17368000       0.78667000
    40  C          0.50378900       0.82632000       0.21333000
    41  C          0.64951100       0.18327000       0.52557000
    42  C          0.35048900       0.81673000       0.47443000
    43  C          0.85281100       0.12438000       0.43088000
    44  C          0.14718900       0.87562000       0.56912000
    45  H          0.84539700       0.07372700       0.35028100
    46  H          0.15460300       0.92627300       0.64971900
    47  H          0.96988600       0.18653400       0.46713300
    48  H          0.03011400       0.81346600       0.53286700
    49  C          0.82521100       0.04218000       0.51398000
    50  C          0.17478900       0.95782000       0.48602000
    51  H          0.76483600       0.95440500       0.46691900
    52  H          0.23516400       0.04559500       0.53308100
    53  H          0.93769200       0.04753800       0.57454600
    54  H          0.06230800       0.95246200       0.42545400
    55  C          0.57121100       0.16277000       0.68687000
    56  C          0.42878900       0.83723000       0.31313000
    57  C          0.06521200       0.33468000       0.29128000
    58  C          0.93478800       0.66532000       0.70872000
    59  H          0.97296900       0.33583300       0.22374200
    60  H          0.02703100       0.66416700       0.77625800
    61  C          0.43781200       0.52418000       0.69438000
    62  C          0.56218800       0.47582000       0.30562000
    63  H          0.47357200       0.59056600       0.76637100
    64  H          0.52642800       0.40943400       0.23362900
    65  C          0.34121100       0.32988000       0.49138000
    66  C          0.65878900       0.67012000       0.50862000
    67  C          0.70451200       0.18898000       0.41808000
    68  C          0.29548800       0.81102000       0.58192000
    69  H          0.74905900       0.27591300       0.41787700
    70  H          0.25094100       0.72408700       0.58212300
    71  H          0.60519200       0.14464800       0.34194400
    72  H          0.39480800       0.85535200       0.65805600
    73  C          0.27171200       0.21868000       0.85458000
    74  C          0.72828800       0.78132000       0.14542000
    75  C          0.57661400       0.15241000       0.89559000
    76  C          0.42338600       0.84759000       0.10441000
    77  H          0.68461700       0.13151600       0.90878200
    78  H          0.31538300       0.86848400       0.09121800
    79  C          0.10981300       0.26361000       0.82849000
    80  C          0.89018700       0.73639000       0.17151000
    81  H          0.12858800       0.33109400       0.79047800
    82  H          0.87141200       0.66890600       0.20952200
    83  H          0.08719300       0.29374300       0.90460900
    84  H          0.91280700       0.70625700       0.09539100
    85  H          0.00827900       0.19519600       0.77298200
    86  H         -0.00827900       0.80480400       0.22701800
    87  C          0.49671600       0.16211000       0.98459000
    88  C          0.50328400       0.83789000       0.01541000
    89  H          0.54561000       0.14337500       0.05815200
    90  H          0.45439000       0.85662500       0.94184800
    91  C          0.34751500       0.19891000       0.96541000
    92  C          0.65248500       0.80109000       0.03459000
    93  H          0.29527000       0.21097200       0.02780200
    94  H          0.70473000       0.78902800       0.97219800
