data_DORDUM04
_symmetry_space_group_name_H-M    'P1'
_symmetry_Int_Tables_number       1
loop_
_symmetry_equiv_pos_site_id
_symmetry_equiv_pos_as_xyz
1 x,y,z
_cell_length_a                   10.72703
_cell_length_b                   14.47115
_cell_length_c                   12.70504
_cell_angle_alpha                90.0
_cell_angle_beta                 107.112017
_cell_angle_gamma                90.0
loop_
_atom_site_label
_atom_site_type_symbol
_atom_site_fract_x
_atom_site_fract_y
_atom_site_fract_z
     1  O          0.29861150       0.43903110       0.94047110
     2  O          0.20138850       0.93903110       0.55952890
     3  O          0.70138850       0.56096890       0.05952890
     4  O          0.79861150       0.06096890       0.44047110
     5  N          0.59172140       0.40513110       0.45477120
     6  N          0.90827860       0.90513110       0.04522880
     7  N          0.40827860       0.59486890       0.54522880
     8  N          0.09172140       0.09486890       0.95477120
     9  N          0.50241140       0.43037110       0.36016120
    10  N         -0.00241140       0.93037110       0.13983880
    11  N          0.49758860       0.56962890       0.63983880
    12  N          0.00241140       0.06962890       0.86016120
    13  N          0.16133150       0.40360110       0.32161120
    14  N          0.33866850       0.90360110       0.17838880
    15  N          0.83866850       0.59639890       0.67838880
    16  N          0.66133150       0.09639890       0.82161120
    17  N          0.41980150       0.50438110       0.84207130
    18  N          0.08019850       0.00438110       0.65792870
    19  N          0.58019850       0.49561890       0.15792870
    20  N          0.91980150      -0.00438110       0.34207130
    21  N          0.11608160       0.16881110       0.53321130
    22  N          0.38391840       0.66881110       0.96678870
    23  N          0.88391840       0.83118890       0.46678870
    24  N          0.61608160       0.33118890       0.03321130
    25  C          0.39138170       0.39175130       0.36866140
    26  C          0.10861830       0.89175130       0.13133860
    27  C          0.60861830       0.60824870       0.63133860
    28  C          0.89138170       0.10824870       0.86866140
    29  C          0.41244170       0.34270120       0.46995140
    30  C          0.08755830       0.84270120       0.03004860
    31  C          0.58755830       0.65729880       0.53004860
    32  C          0.91244170       0.15729880       0.96995140
    33  C          0.54422180       0.35504130       0.52271140
    34  C          0.95577820       0.85504130       0.97728860
    35  C          0.45577820       0.64495870       0.47728860
    36  C          0.04422180       0.14495870       0.02271140
    37  C          0.27420180       0.29473120       0.59426150
    38  C          0.22579820       0.79473120       0.90573850
    39  C          0.72579820       0.70526880       0.40573850
    40  C          0.77420180       0.20526880       0.09426150
    41  C          0.32674180       0.36262130       0.67629150
    42  C          0.17325820       0.86262130       0.82370850
    43  C          0.67325820       0.63737870       0.32370850
    44  C          0.82674180       0.13737870       0.17629150
    45  H          0.39330500       0.40279300       0.66807800
    46  H          0.10669500       0.90279300       0.83192200
    47  H          0.60669500       0.59720700       0.33192200
    48  H          0.89330500       0.09720700       0.16807800
    49  C          0.31635170       0.28218130       0.49868140
    50  C          0.18364830       0.78218130       0.00131860
    51  C          0.68364830       0.71781870       0.50131860
    52  C          0.81635170       0.21781870      -0.00131860
    53  C          0.26597170       0.40432120       0.28343150
    54  C          0.23402830       0.90432120       0.21656850
    55  C          0.73402830       0.59567880       0.71656850
    56  C          0.76597170       0.09567880       0.78343150
    57  C          0.28311180       0.37115130       0.76694150
    58  C          0.21688820       0.87115130       0.73305850
    59  C          0.71688820       0.62884870       0.23305850
    60  C          0.78311180       0.12884870       0.26694150
    61  C          0.17242180       0.23638130       0.60682150
    62  C          0.32757820       0.73638130       0.89317850
    63  C          0.82757820       0.76361870       0.39317850
    64  C          0.67242180       0.26361870       0.10682150
    65  C          0.33451180       0.44117130       0.85671150
    66  C          0.16548820       0.94117130       0.64328850
    67  C          0.66548820       0.55882870       0.14328850
    68  C          0.83451180       0.05882870       0.35671150
    69  C          0.25507180       0.41551130       0.17205150
    70  C          0.24492820       0.91551130       0.32794850
    71  C          0.74492820       0.58448870       0.82794850
    72  C          0.75507180       0.08448870       0.67205150
    73  H          0.33034100       0.41679000       0.14716700
    74  H          0.16965900       0.91679000       0.35283300
    75  H          0.66965900       0.58321000       0.85283300
    76  H          0.83034100       0.08321000       0.64716700
    77  C          0.02383190       0.42208130       0.13710160
    78  C          0.47616810       0.92208130       0.36289840
    79  C          0.97616810       0.57791870       0.86289840
    80  C          0.52383190       0.07791870       0.63710160
    81  H          0.93839200       0.42735900       0.08755200
    82  H          0.56160800       0.92735900       0.41244800
    83  H          0.06160800       0.57264100       0.91244800
    84  H          0.43839200       0.07264100       0.58755200
    85  C          0.13122190       0.42473140       0.09867160
    86  C          0.36877810       0.92473140       0.40132840
    87  C          0.86877810       0.57526860       0.90132840
    88  C          0.63122190       0.07526860       0.59867160
    89  H          0.12048800       0.43283200       0.02230500
    90  H          0.37951200       0.93283200       0.47769500
    91  H          0.87951200       0.56716800       0.97769500
    92  H          0.62048800       0.06716800       0.52230500
    93  C          0.26109180       0.21133130       0.42865150
    94  C          0.23890820       0.71133130       0.07134850
    95  C          0.73890820       0.78866870       0.57134850
    96  C          0.76109180       0.28866870       0.92865150
    97  H          0.28977400       0.19917400       0.36603300
    98  H          0.21022600       0.69917400       0.13396700
    99  H          0.71022600       0.80082600       0.63396700
   100  H          0.78977400       0.30082600       0.86603300
   101  C          0.04228180       0.41156130       0.24959160
   102  C          0.45771820       0.91156130       0.25040840
   103  C          0.95771820       0.58843870       0.75040840
   104  C          0.54228180       0.08843870       0.74959160
   105  C          0.65021180       0.33476140       0.62614160
   106  C          0.84978820       0.83476140       0.87385840
   107  C          0.34978820       0.66523860       0.37385840
   108  C          0.15021180       0.16523860       0.12614160
   109  H          0.64791200       0.26943400       0.64864700
   110  H          0.85208800       0.76943400       0.85135300
   111  H          0.35208800       0.73056600       0.35135300
   112  H          0.14791200       0.23056600       0.14864700
   113  H          0.64440100       0.37549700       0.68711400
   114  H          0.85559900       0.87549700       0.81288600
   115  H          0.35559900       0.62450300       0.31288600
   116  H          0.14440100       0.12450300       0.18711400
   117  C          0.16272000       0.15685140       0.44887160
   118  C          0.33728000       0.65685140       0.05112840
   119  C          0.83728000       0.84314860       0.55112840
   120  C          0.66272000       0.34314860       0.94887160
   121  H          0.12733000       0.10821100       0.39876500
   122  H          0.37267000       0.60821100       0.10123500
   123  H          0.87267000       0.89178900       0.60123500
   124  H          0.62733000       0.39178900       0.89876500
   125  C          0.18209190       0.31200140       0.77839160
   126  C          0.31790810       0.81200140       0.72160840
   127  C          0.81790810       0.68799860       0.22160840
   128  C          0.68209190       0.18799860       0.27839160
   129  H          0.15231800       0.31727700       0.84155300
   130  H          0.34768200       0.81727700       0.65844700
   131  H          0.84768200       0.68272300       0.15844700
   132  H          0.65231800       0.18272300       0.34155300
   133  C          0.73187170       0.42368140       0.49375160
   134  C          0.76812830       0.92368140       0.00624840
   135  C          0.26812830       0.57631860       0.50624840
   136  C          0.23187170       0.07631860      -0.00624840
   137  H          0.75008600       0.48853000       0.51826300
   138  H          0.74991400       0.98853000       0.98173700
   139  H          0.24991400       0.51147000       0.48173700
   140  H          0.25008600       0.01147000       0.01826300
   141  H          0.77486800       0.40977200       0.43648200
   142  H          0.72513200       0.90977200       0.06351800
   143  H          0.22513200       0.59022800       0.56351800
   144  H          0.27486800       0.09022800       0.93648200
   145  C          0.12743190       0.24782140       0.69989160
   146  C          0.37256810       0.74782140       0.80010840
   147  C          0.87256810       0.75217860       0.30010840
   148  C          0.62743190       0.25217860       0.19989160
   149  H          0.05813100       0.21027300       0.70788300
   150  H          0.44186900       0.71027300       0.79211700
   151  H          0.94186900       0.78972700       0.29211700
   152  H          0.55813100       0.28972700       0.20788300
   153  C          0.77434190       0.35564150       0.59115180
   154  C          0.72565810       0.85564150       0.90884820
   155  C          0.22565810       0.64435850       0.40884820
   156  C          0.27434190       0.14435850       0.09115180
   157  H          0.84271000       0.38365100       0.65296600
   158  H          0.65729000       0.88365100       0.84703400
   159  H          0.15729000       0.61634900       0.34703400
   160  H          0.34271000       0.11634900       0.15296600
   161  H          0.80926300       0.29813600       0.56839100
   162  H          0.69073700       0.79813600       0.93160900
   163  H          0.19073700       0.70186400       0.43160900
   164  H          0.30926300       0.20186400       0.06839100
   165  C          0.93018000       0.40885170       0.29771190
   166  C          0.56982000       0.90885170       0.20228810
   167  C          0.06982000       0.59114830       0.70228810
   168  C          0.43018000       0.09114830       0.79771190
   169  H          0.93563600       0.35252900       0.34166800
   170  H          0.56436400       0.85252900       0.15833200
   171  H          0.06436400       0.64747100       0.65833200
   172  H          0.43563600       0.14747100       0.84166800
   173  H          0.84782500       0.40917300       0.23810500
   174  H          0.65217500       0.90917300       0.26189500
   175  H          0.15217500       0.59082700       0.76189500
   176  H          0.34782500       0.09082700       0.73810500
   177  H          0.93395100       0.46306800       0.34475400
   178  H          0.56604900       0.96306800       0.15524600
   179  H          0.06604900       0.53693200       0.65524600
   180  H          0.43395100       0.03693200       0.84475400
   181  H          0.44420000       0.54981900       0.89520000
   182  H          0.05580000       0.04981900       0.60480000
   183  H          0.55580000       0.45018100       0.10480000
   184  H          0.94420000       0.95018100       0.39520000
   185  H          0.43820000       0.51271500       0.77321900
   186  H          0.06180000       0.01271500       0.72678100
   187  H          0.56180000       0.48728500       0.22678100
   188  H          0.93820000       0.98728500       0.27321900
