data_DORDUM01
_symmetry_space_group_name_H-M    'P1'
_symmetry_Int_Tables_number       1
loop_
_symmetry_equiv_pos_site_id
_symmetry_equiv_pos_as_xyz
1 x,y,z
_cell_length_a                   7.711914
_cell_length_b                   8.911117
_cell_length_c                   14.6172
_cell_angle_alpha                81.90613
_cell_angle_beta                 78.79914
_cell_angle_gamma                75.25815
loop_
_atom_site_label
_atom_site_type_symbol
_atom_site_fract_x
_atom_site_fract_y
_atom_site_fract_z
     1  O          0.70692000       0.01492000       0.01464110
     2  O          0.29308000       0.98508000       0.98535890
     3  N          0.30642000       0.38162000       0.49949120
     4  N          0.69358000       0.61838000       0.50050880
     5  N          0.29012000       0.47352000       0.41858120
     6  N          0.70988000       0.52648000       0.58141880
     7  N          0.13523000       0.07392000       0.32788130
     8  N          0.86477000       0.92608000       0.67211870
     9  N          0.66153000       0.50922000       0.23646130
    10  N          0.33847000       0.49078000       0.76353870
    11  N          0.46013000       0.07412000       0.12460130
    12  N          0.53987000       0.92588000       0.87539870
    13  H          0.38732600       0.06852600       0.08635400
    14  H          0.61267400       0.93147400       0.91364600
    15  H          0.41486100       0.09720500       0.18234000
    16  H          0.58513900       0.90279500       0.81766000
    17  C          0.46993000       0.28312000       0.50048150
    18  C          0.53007000       0.71688000       0.49951850
    19  C          0.45373000       0.42732000       0.36526150
    20  C          0.54627000       0.57268000       0.63473850
    21  C          0.69843000       0.13752000       0.24019140
    22  C          0.30157000       0.86248000       0.75980860
    23  H          0.57294500       0.18578100       0.25544700
    24  H          0.42705500       0.81421900       0.74455300
    25  C          0.57323000       0.30672000       0.41361140
    26  C          0.42677000       0.69328000       0.58638860
    27  C          0.81993000       0.14742000       0.29903140
    28  C          0.18007000       0.85258000       0.70096860
    29  C          0.76333000       0.22442000       0.38291140
    30  C          0.23667000       0.77558000       0.61708860
    31  C          0.00643000       0.07192000       0.27570150
    32  C         -0.00643000       0.92808000       0.72429850
    33  C          0.48973000       0.50252000       0.26894150
    34  C          0.51027000       0.49748000       0.73105850
    35  C          0.75903000       0.05912000       0.16142150
    36  C          0.24097000       0.94088000       0.83857850
    37  C          0.06423000      -0.01173000       0.19550150
    38  C          0.93577000       0.01173000       0.80449850
    39  H          0.18780000       0.93409600       0.18100700
    40  H          0.81220000       0.06590400       0.81899300
    41  C          0.63863000       0.04763000       0.09516150
    42  C          0.36137000       0.95237000       0.90483850
    43  C          0.94503000       0.98477000       0.13898150
    44  C          0.05497000       0.01523000       0.86101850
    45  H          0.98703000       0.93195700       0.08390800
    46  H          0.01297000       0.06804300       0.91609200
    47  C          0.17953000       0.37953000       0.58785150
    48  C          0.82047000       0.62047000       0.41214850
    49  H          0.05540100       0.38212600       0.57772800
    50  H          0.94459900       0.61787400       0.42227200
    51  H          0.17493100       0.46696000       0.62381700
    52  H          0.82506900       0.53304000       0.37618300
    53  C          0.89333000       0.21582000       0.43692160
    54  C          0.10667000       0.78418000       0.56307840
    55  H          0.85979700       0.25925100       0.49535400
    56  H          0.14020300       0.74074900       0.50464600
    57  C          0.70214000       0.57493000       0.14833170
    58  C          0.29786000       0.42507000       0.85166830
    59  C          0.47273000       0.18803000       0.59339150
    60  C          0.52727000       0.81197000       0.40660850
    61  H          0.54403500       0.22292700       0.63221200
    62  H          0.45596500       0.77707300       0.36778800
    63  H          0.52291800       0.07573700       0.58587500
    64  H          0.47708200       0.92426300       0.41412500
    65  C          0.07603000       0.14293000       0.40600170
    66  C          0.92397000       0.85707000       0.59399830
    67  H          0.16277500       0.14325500       0.44401400
    68  H          0.83722500       0.85674500       0.55598600
    69  C          0.35014000       0.55863000       0.21650170
    70  C          0.64986000       0.44137000       0.78349830
    71  H          0.22900300       0.55113300       0.24162100
    72  H          0.77099700       0.44886700       0.75837900
    73  C          0.26803000       0.22163000       0.63609160
    74  C          0.73197000       0.77837000       0.36390840
    75  H          0.21290600       0.13865500       0.62437900
    76  H          0.78709400       0.86134500       0.37562100
    77  H          0.25145500       0.22648800       0.70457200
    78  H          0.74854500       0.77351200       0.29542800
    79  C          0.57034000       0.63323000       0.09187180
    80  C          0.42966000       0.36677000       0.90812820
    81  H          0.60195100       0.67798300       0.02985100
    82  H          0.39804900       0.32201700       0.97014900
    83  C          0.39434000       0.62573000       0.12621180
    84  C          0.60566000       0.37427000       0.87378820
    85  H          0.30265800       0.66629800       0.08832000
    86  H          0.69734200       0.33370200       0.91168000
    87  C          0.89644000       0.57994000       0.11648190
    88  C          0.10356000       0.42006000       0.88351810
    89  H          0.93586700       0.63126300       0.16113600
    90  H          0.06413300       0.36873700       0.83886400
    91  H          0.90987700       0.63825200       0.05450400
    92  H          0.09012300       0.36174800       0.94549600
    93  H          0.97132200       0.47336400       0.11287100
    94  H          0.02867800       0.52663600       0.88712900
