data_DPANTR11
_symmetry_space_group_name_H-M    'P1'
_symmetry_Int_Tables_number       1
loop_
_symmetry_equiv_pos_site_id
_symmetry_equiv_pos_as_xyz
1 x,y,z
_cell_length_a                   9.2162
_cell_length_b                   21.1115
_cell_length_c                   10.0412
_cell_angle_alpha                90.0
_cell_angle_beta                 111.4044
_cell_angle_gamma                90.0
loop_
_atom_site_label
_atom_site_type_symbol
_atom_site_fract_x
_atom_site_fract_y
_atom_site_fract_z
     1  C          0.10752140       0.08976500       0.75186120
     2  C          0.39247860       0.58976500       0.74813880
     3  C          0.89247860       0.91023500       0.24813880
     4  C          0.60752140       0.41023500       0.25186120
     5  C          0.95666860       0.20853500       0.67608130
     6  C          0.54333140       0.70853500       0.82391870
     7  C          0.04333140       0.79146500       0.32391870
     8  C          0.45666860       0.29146500       0.17608130
     9  C          0.94419860       0.09337500       0.71228130
    10  C          0.55580140       0.59337500       0.78771870
    11  C          0.05580140       0.90662500       0.28771870
    12  C          0.44419860       0.40662500       0.21228130
    13  C          0.86865860       0.15241600       0.67730130
    14  C          0.63134140       0.65241600       0.82269870
    15  C          0.13134140       0.84758400       0.32269870
    16  C          0.36865860       0.34758400       0.17730130
    17  C          0.11826140       0.20448500       0.70742130
    18  C          0.38173860       0.70448500       0.79257870
    19  C          0.88173860       0.79551500       0.29257870
    20  C          0.61826140       0.29551500       0.20742130
    21  C          0.19541130       0.14600500       0.75064120
    22  C          0.30458870       0.64600500       0.74935880
    23  C          0.80458870       0.85399500       0.24935880
    24  C          0.69541130       0.35399500       0.25064120
    25  C          0.20718140       0.26071600       0.68711130
    26  C          0.29281860       0.76071600       0.81288870
    27  C          0.79281860       0.73928400       0.31288870
    28  C          0.70718140       0.23928400       0.18711130
    29  C          0.85079860       0.03440600       0.70394140
    30  C          0.64920140       0.53440600       0.79605860
    31  C          0.14920140       0.96559400       0.29605860
    32  C          0.35079860       0.46559400       0.20394140
    33  C          0.18985160       0.03125600       0.79118150
    34  C          0.31014840       0.53125600       0.70881850
    35  C          0.81014840       0.96874400       0.20881850
    36  C          0.68985160       0.46874400       0.29118150
    37  C          0.70366840       0.15858700       0.63965160
    38  C          0.79633160       0.65858700       0.86034840
    39  C          0.29633160       0.84141300       0.36034840
    40  C          0.20366840       0.34141300       0.13965160
    41  C          0.34684170       0.02813700       0.83052170
    42  C          0.15315830       0.52813700       0.66947830
    43  C          0.65315830       0.97186300       0.16947830
    44  C          0.84684170       0.47186300       0.33052170
    45  C          0.36131150       0.14020700       0.79499150
    46  C          0.13868850       0.64020700       0.70500850
    47  C          0.63868850       0.85979300       0.20500850
    48  C          0.86131150       0.35979300       0.29499150
    49  C          0.87514840       0.26770700       0.64038150
    50  C          0.62485160       0.76770700       0.85961850
    51  C          0.12485160       0.73229300       0.35961850
    52  C          0.37514840       0.23229300       0.14038150
    53  C          0.43386170       0.08366700       0.83453170
    54  C          0.06613830       0.58366700       0.66546830
    55  C          0.56613830       0.91633300       0.16546830
    56  C          0.93386170       0.41633300       0.33453170
    57  C          0.22078160       0.27050700       0.55622160
    58  C          0.27921840       0.77050700       0.94377840
    59  C          0.77921840       0.72949300       0.44377840
    60  C          0.72078160       0.22949300       0.05622160
    61  C          0.82006840       0.01153600       0.81944160
    62  C          0.67993160       0.51153600       0.68055840
    63  C          0.17993160       0.98846400       0.18055840
    64  C          0.32006840       0.48846400       0.31944160
    65  C          0.63219820       0.21566800       0.60758190
    66  C          0.86780180       0.71566800       0.89241810
    67  C          0.36780180       0.78433200       0.39241810
    68  C          0.13219820       0.28433200       0.10758190
    69  C          0.71911820       0.27103800       0.60795190
    70  C          0.78088180       0.77103800       0.89204810
    71  C          0.28088180       0.72896200       0.39204810
    72  C          0.21911820       0.22896200       0.10795190
    73  C          0.73054820       0.95728300       0.80797190
    74  C          0.76945180       0.45728300       0.69202810
    75  C          0.26945180       0.04271700       0.19202810
    76  C          0.23054820       0.54271700       0.30797190
    77  C          0.30886190       0.32078800       0.53722000
    78  C          0.19113810       0.82078800       0.96278000
    79  C          0.69113810       0.67921200       0.46278000
    80  C          0.80886190       0.17921200       0.03722000
    81  C          0.27972000       0.30271700       0.79674180
    82  C          0.22028000       0.80271700       0.70325820
    83  C          0.72028000       0.69728300       0.20325820
    84  C          0.77972000       0.19728300       0.29674180
    85  C          0.38421180       0.36079700       0.64832000
    86  C          0.11578820       0.86079700       0.85168000
    87  C          0.61578820       0.63920300       0.35168000
    88  C          0.88421180       0.13920300       0.14832000
    89  C          0.79198000       0.00089800       0.57709180
    90  C          0.70802000       0.50089800       0.92290820
    91  C          0.20802000      -0.00089800       0.42290820
    92  C          0.29198000       0.49910200       0.07709180
    93  C          0.67218000       0.92550200       0.68172000
    94  C          0.82782000       0.42550200       0.81828000
    95  C          0.32782000       0.07449800       0.31828000
    96  C          0.17218000       0.57449800       0.18172000
    97  C          0.36932000       0.35225800       0.77722000
    98  C          0.13068000       0.85225800       0.72278000
    99  C          0.63068000       0.64774200       0.22278000
   100  C          0.86932000       0.14774200       0.27722000
   101  C          0.70327000       0.94694100       0.56632000
   102  C          0.79673000       0.44694100       0.93368000
   103  C          0.29673000       0.05305900       0.43368000
   104  C          0.20327000       0.55305900       0.06632000
   105  H          0.12831600       0.99323000       0.78841400
   106  H          0.37168400       0.49323000       0.71158600
   107  H          0.87168400       0.00677000       0.21158600
   108  H          0.62831600       0.50677000       0.28841400
   109  H          0.16941700       0.24067000       0.47951600
   110  H          0.33058300       0.74067000       0.02048400
   111  H          0.83058300       0.75933000       0.52048400
   112  H          0.66941700       0.25933000       0.97951600
   113  H          0.86718300       0.03407000       0.91351800
   114  H          0.63281700       0.53407000       0.58648200
   115  H          0.13281700       0.96593000       0.08648200
   116  H          0.36718300       0.46593000       0.41351800
   117  H          0.54820000       0.08058000       0.86511800
   118  H          0.95180000       0.58058000       0.63488200
   119  H          0.45180000       0.91942000       0.13488200
   120  H          0.04820000       0.41942000       0.36511800
   121  H          0.51580000       0.21918000       0.58371700
   122  H         -0.01580000       0.71918000       0.91628300
   123  H          0.48420000       0.78082000       0.41628300
   124  H          0.01580000       0.28082000       0.08371700
   125  H          0.93638300       0.30597000       0.63711500
   126  H          0.56361700       0.80597000       0.86288500
   127  H          0.06361700       0.69403000       0.36288500
   128  H          0.43638300       0.19403000       0.13711500
   129  H          0.42141700       0.17747000       0.79291500
   130  H          0.07858300       0.67747000       0.70708500
   131  H          0.57858300       0.82253000       0.20708500
   132  H          0.92141700       0.32253000       0.29291500
   133  H          0.64558100       0.12318000       0.64361700
   134  H          0.85441900       0.62318000       0.85638300
   135  H          0.35441900       0.87682000       0.35638300
   136  H          0.14558100       0.37682000       0.14361700
   137  H          0.39611900       0.98782000       0.85701700
   138  H          0.10388100       0.48782000       0.64298300
   139  H          0.60388100       0.01218000       0.14298300
   140  H          0.89611900       0.51218000       0.35701700
   141  H          0.32120000       0.32588000       0.44701900
   142  H          0.17880000       0.82588000       0.05298100
   143  H          0.67880000       0.67412000       0.55298100
   144  H          0.82120000       0.17412000       0.94701900
   145  H          0.66580000       0.31238000       0.58241800
   146  H          0.83420000       0.81238000       0.91758200
   147  H          0.33420000       0.68762000       0.41758200
   148  H          0.16580000       0.18762000       0.08241800
   149  H          0.45120000       0.39579000       0.63551900
   150  H          0.04880000       0.89579000       0.86448100
   151  H          0.54880000       0.60421000       0.36448100
   152  H          0.95120000       0.10421000       0.13551900
   153  H          0.81880000       0.01549000       0.49420000
   154  H          0.68120000       0.51549000       0.00580000
   155  H          0.18120000       0.98451000       0.50580000
   156  H          0.31880000       0.48451000      -0.00580000
   157  H          0.42420000       0.38149000       0.86320000
   158  H          0.07580000       0.88149000       0.63680000
   159  H          0.57580000       0.61851000       0.13680000
   160  H          0.92420000       0.11851000       0.36320000
   161  H          0.60680000       0.88831000       0.67411800
   162  H          0.89320000       0.38831000       0.82588200
   163  H          0.39320000       0.11169000       0.32588200
   164  H          0.10680000       0.61169000       0.17411800
   165  H          0.70780000       0.94252000       0.89071900
   166  H          0.79220000       0.44252000       0.60928100
   167  H          0.29220000       0.05748000       0.10928100
   168  H          0.20780000       0.55748000       0.39071900
   169  H          0.26620000       0.29818000       0.88920000
   170  H          0.23380000       0.79818000       0.61080000
   171  H          0.73380000       0.70182000       0.11080000
   172  H          0.76620000       0.20182000       0.38920000
   173  H          0.66180000       0.92549000       0.47620000
   174  H          0.83820000       0.42549000       0.02380000
   175  H          0.33820000       0.07451000       0.52380000
   176  H          0.16180000       0.57451000       0.97620000
