data_DPANTR08
_symmetry_space_group_name_H-M    'P1'
_symmetry_Int_Tables_number       1
loop_
_symmetry_equiv_pos_site_id
_symmetry_equiv_pos_as_xyz
1 x,y,z
_cell_length_a                   9.49761
_cell_length_b                   20.4132
_cell_length_c                   10.08439
_cell_angle_alpha                90.0
_cell_angle_beta                 112.3079
_cell_angle_gamma                90.0
loop_
_atom_site_label
_atom_site_type_symbol
_atom_site_fract_x
_atom_site_fract_y
_atom_site_fract_z
     1  C          0.87768000       0.88733100       0.59848000
     2  C          0.62232000       0.38733100       0.40152000
     3  C          0.12232000       0.11266900       0.40152000
     4  C          0.37768000       0.61266900       0.59848000
     5  C          0.84218000      -0.00560800       0.46785810
     6  C          0.65782000       0.49439200       0.53214190
     7  C          0.15782000       0.00560800       0.53214190
     8  C          0.34218000       0.50560800       0.46785810
     9  C          0.09752000       0.94934200       0.57813810
    10  C          0.40248000       0.44934200       0.42186190
    11  C          0.90248000       0.05065800       0.42186190
    12  C          0.59752000       0.55065800       0.57813810
    13  C          0.94048000       0.94450200       0.54585810
    14  C          0.55952000       0.44450200       0.45414190
    15  C          0.05952000       0.05549800       0.45414190
    16  C          0.44048000       0.55549800       0.54585810
    17  C          0.86547000       0.82551100       0.53798000
    18  C          0.63453000       0.32551100       0.46202000
    19  C          0.13453000       0.17448900       0.46202000
    20  C          0.36547000       0.67448900       0.53798000
    21  C          0.35313000       0.90556900       0.69198000
    22  C          0.14687000       0.40556900       0.30802000
    23  C          0.64687000       0.09443100       0.30802000
    24  C          0.85313000       0.59443100       0.69198000
    25  C          0.76797000       0.84425890       0.76008000
    26  C          0.73203000       0.34425890       0.23992000
    27  C          0.23203000       0.15574110       0.23992000
    28  C          0.26797000       0.65574110       0.76008000
    29  C          0.82898000       0.89570900       0.71008000
    30  C          0.67102000       0.39570900       0.28992000
    31  C          0.17102000       0.10429100       0.28992000
    32  C          0.32898000       0.60429100       0.71008000
    33  C          0.20202000       0.90032100       0.65858000
    34  C          0.29798000       0.40032100       0.34142000
    35  C          0.79798000       0.09967900       0.34142000
    36  C          0.70202000       0.59967900       0.65858000
    37  C          0.68108000       0.99096100       0.42828000
    38  C          0.81892000       0.49096100       0.57172000
    39  C          0.31892000       0.00903900       0.57172000
    40  C          0.18108000       0.50903900       0.42828000
    41  C          0.75567000       0.78343890       0.69797000
    42  C          0.74433000       0.28343890       0.30203000
    43  C          0.24433000       0.21656110       0.30203000
    44  C          0.25567000       0.71656110       0.69797000
    45  C          0.58728000       0.03906110       0.35208000
    46  C          0.91272000       0.53906110       0.64792000
    47  C          0.41272000       0.96093890       0.64792000
    48  C          0.08728000       0.46093890       0.35208000
    49  C          0.80437000       0.77397900       0.58787000
    50  C          0.69563000       0.27397900       0.41213000
    51  C          0.19563000       0.22602100       0.41213000
    52  C          0.30437000       0.72602100       0.58787000
    53  H          0.90040000       0.81890000       0.46020000
    54  H          0.59960000       0.31890000       0.53980000
    55  H          0.09960000       0.18110000       0.53980000
    56  H          0.40040000       0.68110000       0.46020000
    57  H          0.42120000       0.87140000       0.74620000
    58  H          0.07880000       0.37140000       0.25380000
    59  H          0.57880000       0.12860000       0.25380000
    60  H          0.92120000       0.62860000       0.74620000
    61  H          0.73440000       0.85080000       0.83950000
    62  H          0.76560000       0.35080000       0.16050000
    63  H          0.26560000       0.14920000       0.16050000
    64  H          0.23440000       0.64920000       0.83950000
    65  H          0.83830000       0.93870000       0.75330000
    66  H          0.66170000       0.43870000       0.24670000
    67  H          0.16170000       0.06130000       0.24670000
    68  H          0.33830000       0.56130000       0.75330000
    69  H          0.16190000       0.86210000       0.68890000
    70  H          0.33810000       0.36210000       0.31110000
    71  H          0.83810000       0.13790000       0.31110000
    72  H          0.66190000       0.63790000       0.68890000
    73  H          0.63890000       0.95330000       0.45790000
    74  H          0.86110000       0.45330000       0.54210000
    75  H          0.36110000       0.04670000       0.54210000
    76  H          0.13890000       0.54670000       0.45790000
    77  H          0.71220000       0.74750000       0.73140000
    78  H          0.78780000       0.24750000       0.26860000
    79  H          0.28780000       0.25250000       0.26860000
    80  H          0.21220000       0.75250000       0.73140000
    81  H          0.47890000       0.03540000       0.32700000
    82  H          0.02110000       0.53540000       0.67300000
    83  H          0.52110000       0.96460000       0.67300000
    84  H          0.97890000       0.46460000       0.32700000
    85  H          0.79610000       0.73100000       0.54530000
    86  H          0.70390000       0.23100000       0.45470000
    87  H          0.20390000       0.26900000       0.45470000
    88  H          0.29610000       0.76900000       0.54530000
    89  C          0.88748000       0.04928900       0.94118000
    90  C          0.61252000       0.54928900       0.05882000
    91  C          0.11252000       0.95071100       0.05882000
    92  C          0.38748000       0.45071100       0.94118000
    93  C          0.02802000       0.05411900       0.92568000
    94  C          0.47198000       0.55411900       0.07432000
    95  C          0.97198000       0.94588100       0.07432000
    96  C          0.52802000       0.44588100       0.92568000
    97  C          0.06443000       0.10851100       0.85528000
    98  C          0.43557000       0.60851100       0.14472000
    99  C          0.93557000       0.89148900       0.14472000
   100  C          0.56443000       0.39148900       0.85528000
   101  C          0.85818000      -0.00437900       0.01492000
   102  C          0.64182000       0.49562100      -0.01492000
   103  C          0.14182000       0.00437900      -0.01492000
   104  C          0.35818000       0.50437900       0.01492000
   105  C          0.77048000       0.10149900       0.87928000
   106  C          0.72952000       0.60149900       0.12072000
   107  C          0.22952000       0.89850100       0.12072000
   108  C          0.27048000       0.39850100       0.87928000
   109  C          0.71607000       0.98734890       0.02982000
   110  C          0.78393000       0.48734890       0.97018000
   111  C          0.28393000       0.01265110       0.97018000
   112  C          0.21607000       0.51265110       0.02982000
   113  C          0.68537000       0.10478110       0.73398000
   114  C          0.81463000       0.60478110       0.26602000
   115  C          0.31463000       0.89521890       0.26602000
   116  C          0.18537000       0.39521890       0.73398000
   117  C          0.20153000       0.11407110       0.84538000
   118  C          0.29847000       0.61407110       0.15462000
   119  C          0.79847000       0.88592890       0.15462000
   120  C          0.70153000       0.38592890       0.84538000
   121  C          0.57877000       0.15382110       0.67737000
   122  C          0.92123000       0.65382110       0.32263000
   123  C          0.42123000       0.84617890       0.32263000
   124  C          0.07877000       0.34617890       0.67737000
   125  C          0.68667000       0.93453890       0.09663000
   126  C          0.81333000       0.43453890       0.90337000
   127  C          0.31333000       0.06546110       0.90337000
   128  C          0.18667000       0.56546110       0.09663000
   129  C          0.55597000       0.20032120       0.76427000
   130  C          0.94403000       0.70032120       0.23573000
   131  C          0.44403000       0.79967880       0.23573000
   132  C          0.05597000       0.29967880       0.76427000
   133  C          0.74597000       0.14938120       0.96447000
   134  C          0.75403000       0.64938120       0.03553000
   135  C          0.25403000       0.85061880       0.03553000
   136  C          0.24597000       0.35061880       0.96447000
   137  C          0.63926000       0.19797130       0.90717000
   138  C          0.86074000       0.69797130       0.09283000
   139  C          0.36074000       0.80202870       0.09283000
   140  C          0.13926000       0.30202870       0.90717000
   141  H         -0.01100000       0.14240000       0.81480000
   142  H          0.51100000       0.64240000       0.18520000
   143  H          0.01100000       0.85760000       0.18520000
   144  H          0.48900000       0.35760000       0.81480000
   145  H          0.63940000       0.02020000      -0.00830000
   146  H          0.86060000       0.52020000       0.00830000
   147  H          0.36060000       0.97980000       0.00830000
   148  H          0.13940000       0.47980000      -0.00830000
   149  H          0.70190000       0.07220000       0.67180000
   150  H          0.79810000       0.57220000       0.32820000
   151  H          0.29810000       0.92780000       0.32820000
   152  H          0.20190000       0.42780000       0.67180000
   153  H          0.22370000       0.15180000       0.79810000
   154  H          0.27630000       0.65180000       0.20190000
   155  H          0.77630000       0.84820000       0.20190000
   156  H          0.72370000       0.34820000       0.79810000
   157  H          0.52130000       0.15550000       0.57570000
   158  H          0.97870000       0.65550000       0.42430000
   159  H          0.47870000       0.84450000       0.42430000
   160  H          0.02130000       0.34450000       0.57570000
   161  H          0.58930000       0.93020000       0.10420000
   162  H          0.91070000       0.43020000       0.89580000
   163  H          0.41070000       0.06980000       0.89580000
   164  H          0.08930000       0.56980000       0.10420000
   165  H          0.48160000       0.23380000       0.72470000
   166  H          0.01840000       0.73380000       0.27530000
   167  H          0.51840000       0.76620000       0.27530000
   168  H         -0.01840000       0.26620000       0.72470000
   169  H          0.80530000       0.14830000       0.06530000
   170  H          0.69470000       0.64830000       0.93470000
   171  H          0.19470000       0.85170000       0.93470000
   172  H          0.30530000       0.35170000       0.06530000
   173  H          0.62330000       0.23000000       0.96880000
   174  H          0.87670000       0.73000000       0.03120000
   175  H          0.37670000       0.77000000       0.03120000
   176  H          0.12330000       0.27000000       0.96880000
