data_DPANTR
_symmetry_space_group_name_H-M    'P1'
_symmetry_Int_Tables_number       1
loop_
_symmetry_equiv_pos_site_id
_symmetry_equiv_pos_as_xyz
1 x,y,z
_cell_length_a                   10.691
_cell_length_b                   13.581
_cell_length_c                   12.291
_cell_angle_alpha                90.0
_cell_angle_beta                 90.62
_cell_angle_gamma                90.0
loop_
_atom_site_label
_atom_site_type_symbol
_atom_site_fract_x
_atom_site_fract_y
_atom_site_fract_z
     1  C          0.85420000       0.81310000       0.52060000
     2  C          0.35420000       0.31310000       0.52060000
     3  C          0.14580000       0.81310000       0.97940000
     4  C          0.64580000       0.31310000       0.97940000
     5  C          0.14580000       0.18690000       0.47940000
     6  C          0.64580000       0.68690000       0.47940000
     7  C          0.85420000       0.18690000       0.02060000
     8  C          0.35420000       0.68690000       0.02060000
     9  C          0.74130000       0.83430000       0.56440000
    10  C          0.24130000       0.33430000       0.56440000
    11  C          0.25870000       0.83430000       0.93560000
    12  C          0.75870000       0.33430000       0.93560000
    13  C          0.25870000       0.16570000       0.43560000
    14  C          0.75870000       0.66570000       0.43560000
    15  C          0.74130000       0.16570000       0.06440000
    16  C          0.24130000       0.66570000       0.06440000
    17  C          0.86490000       0.72240000       0.45210000
    18  C          0.36490000       0.22240000       0.45210000
    19  C          0.13510000       0.72240000       0.04790000
    20  C          0.63510000       0.22240000       0.04790000
    21  C          0.13510000       0.27760000       0.54790000
    22  C          0.63510000       0.77760000       0.54790000
    23  C          0.86490000       0.27760000       0.95210000
    24  C          0.36490000       0.77760000       0.95210000
    25  C          0.73060000       0.92960000       0.63440000
    26  C          0.23060000       0.42960000       0.63440000
    27  C          0.26940000       0.92960000       0.86560000
    28  C          0.76940000       0.42960000       0.86560000
    29  C          0.26940000       0.07040000       0.36560000
    30  C          0.76940000       0.57040000       0.36560000
    31  C          0.73060000       0.07040000       0.13440000
    32  C          0.23060000       0.57040000       0.13440000
    33  C          0.65570000       0.00260000       0.59720000
    34  C          0.15570000       0.50260000       0.59720000
    35  C          0.34430000       0.00260000       0.90280000
    36  C          0.84430000       0.50260000       0.90280000
    37  C          0.34430000      -0.00260000       0.40280000
    38  C          0.84430000       0.49740000       0.40280000
    39  C          0.65570000      -0.00260000       0.09720000
    40  C          0.15570000       0.49740000       0.09720000
    41  C          0.98230000       0.70580000       0.40500000
    42  C          0.48230000       0.20580000       0.40500000
    43  C          0.01770000       0.70580000       0.09500000
    44  C          0.51770000       0.20580000       0.09500000
    45  C          0.01770000       0.29420000       0.59500000
    46  C          0.51770000       0.79420000       0.59500000
    47  C          0.98230000       0.29420000       0.90500000
    48  C          0.48230000       0.79420000       0.90500000
    49  C          0.07210000       0.84900000       0.48940000
    50  C          0.57210000       0.34900000       0.48940000
    51  C          0.92790000       0.84900000       0.01060000
    52  C          0.42790000       0.34900000       0.01060000
    53  C          0.92790000       0.15100000       0.51060000
    54  C          0.42790000       0.65100000       0.51060000
    55  C          0.07210000       0.15100000      -0.01060000
    56  C          0.57210000       0.65100000      -0.01060000
    57  C          0.08450000       0.75990000       0.42060000
    58  C          0.58450000       0.25990000       0.42060000
    59  C          0.91550000       0.75990000       0.07940000
    60  C          0.41550000       0.25990000       0.07940000
    61  C          0.91550000       0.24010000       0.57940000
    62  C          0.41550000       0.74010000       0.57940000
    63  C          0.08450000       0.24010000       0.92060000
    64  C          0.58450000       0.74010000       0.92060000
    65  C          0.96560000       0.86920000       0.53510000
    66  C          0.46560000       0.36920000       0.53510000
    67  C          0.03440000       0.86920000       0.96490000
    68  C          0.53440000       0.36920000       0.96490000
    69  C          0.03440000       0.13080000       0.46490000
    70  C          0.53440000       0.63080000       0.46490000
    71  C          0.96560000       0.13080000       0.03510000
    72  C          0.46560000       0.63080000       0.03510000
    73  C          0.69780000       0.09710000       0.75810000
    74  C          0.19780000       0.59710000       0.75810000
    75  C          0.30220000       0.09710000       0.74190000
    76  C          0.80220000       0.59710000       0.74190000
    77  C          0.30220000       0.90290000       0.24190000
    78  C          0.80220000       0.40290000       0.24190000
    79  C          0.69780000       0.90290000       0.25810000
    80  C          0.19780000       0.40290000       0.25810000
    81  C          0.64200000       0.08940000       0.66170000
    82  C          0.14200000       0.58940000       0.66170000
    83  C          0.35800000       0.08940000       0.83830000
    84  C          0.85800000       0.58940000       0.83830000
    85  C          0.35800000       0.91060000       0.33830000
    86  C          0.85800000       0.41060000       0.33830000
    87  C          0.64200000       0.91060000       0.16170000
    88  C          0.14200000       0.41060000       0.16170000
    89  C          0.78850000       0.93380000       0.73190000
    90  C          0.28850000       0.43380000       0.73190000
    91  C          0.21150000       0.93380000       0.76810000
    92  C          0.71150000       0.43380000       0.76810000
    93  C          0.21150000       0.06620000       0.26810000
    94  C          0.71150000       0.56620000       0.26810000
    95  C          0.78850000       0.06620000       0.23190000
    96  C          0.28850000       0.56620000       0.23190000
    97  C          0.77390000       0.01690000       0.79660000
    98  C          0.27390000       0.51690000       0.79660000
    99  C          0.22610000       0.01690000       0.70340000
   100  C          0.72610000       0.51690000       0.70340000
   101  C          0.22610000       0.98310000       0.20340000
   102  C          0.72610000       0.48310000       0.20340000
   103  C          0.77390000       0.98310000       0.29660000
   104  C          0.27390000       0.48310000       0.29660000
   105  H          0.61400000       0.00200000       0.53700000
   106  H          0.11400000       0.50200000       0.53700000
   107  H          0.38600000       0.00200000       0.96300000
   108  H          0.88600000       0.50200000       0.96300000
   109  H          0.38600000      -0.00200000       0.46300000
   110  H          0.88600000       0.49800000       0.46300000
   111  H          0.61400000      -0.00200000       0.03700000
   112  H          0.11400000       0.49800000       0.03700000
   113  H          0.56900000       0.11500000       0.63500000
   114  H          0.06900000       0.61500000       0.63500000
   115  H          0.43100000       0.11500000       0.86500000
   116  H          0.93100000       0.61500000       0.86500000
   117  H          0.43100000       0.88500000       0.36500000
   118  H          0.93100000       0.38500000       0.36500000
   119  H          0.56900000       0.88500000       0.13500000
   120  H          0.06900000       0.38500000       0.13500000
   121  H          0.68100000       0.15300000       0.82000000
   122  H          0.18100000       0.65300000       0.82000000
   123  H          0.31900000       0.15300000       0.68000000
   124  H          0.81900000       0.65300000       0.68000000
   125  H          0.31900000       0.84700000       0.18000000
   126  H          0.81900000       0.34700000       0.18000000
   127  H          0.68100000       0.84700000       0.32000000
   128  H          0.18100000       0.34700000       0.32000000
   129  H          0.81600000       0.03000000       0.87500000
   130  H          0.31600000       0.53000000       0.87500000
   131  H          0.18400000       0.03000000       0.62500000
   132  H          0.68400000       0.53000000       0.62500000
   133  H          0.18400000       0.97000000       0.12500000
   134  H          0.68400000       0.47000000       0.12500000
   135  H          0.81600000       0.97000000       0.37500000
   136  H          0.31600000       0.47000000       0.37500000
   137  H          0.87900000       0.86900000       0.74300000
   138  H          0.37900000       0.36900000       0.74300000
   139  H          0.12100000       0.86900000       0.75700000
   140  H          0.62100000       0.36900000       0.75700000
   141  H          0.12100000       0.13100000       0.25700000
   142  H          0.62100000       0.63100000       0.25700000
   143  H          0.87900000       0.13100000       0.24300000
   144  H          0.37900000       0.63100000       0.24300000
   145  H          0.97200000       0.66500000       0.35900000
   146  H          0.47200000       0.16500000       0.35900000
   147  H          0.02800000       0.66500000       0.14100000
   148  H          0.52800000       0.16500000       0.14100000
   149  H          0.02800000       0.33500000       0.64100000
   150  H          0.52800000       0.83500000       0.64100000
   151  H          0.97200000       0.33500000       0.85900000
   152  H          0.47200000       0.83500000       0.85900000
   153  H          0.16400000       0.74100000       0.42000000
   154  H          0.66400000       0.24100000       0.42000000
   155  H          0.83600000       0.74100000       0.08000000
   156  H          0.33600000       0.24100000       0.08000000
   157  H          0.83600000       0.25900000       0.58000000
   158  H          0.33600000       0.75900000       0.58000000
   159  H          0.16400000       0.25900000       0.92000000
   160  H          0.66400000       0.75900000       0.92000000
   161  H          0.14900000       0.86200000       0.51900000
   162  H          0.64900000       0.36200000       0.51900000
   163  H          0.85100000       0.86200000       0.98100000
   164  H          0.35100000       0.36200000       0.98100000
   165  H          0.85100000       0.13800000       0.48100000
   166  H          0.35100000       0.63800000       0.48100000
   167  H          0.14900000       0.13800000       0.01900000
   168  H          0.64900000       0.63800000       0.01900000
   169  H          0.96500000       0.89700000       0.60600000
   170  H          0.46500000       0.39700000       0.60600000
   171  H          0.03500000       0.89700000       0.89400000
   172  H          0.53500000       0.39700000       0.89400000
   173  H          0.03500000       0.10300000       0.39400000
   174  H          0.53500000       0.60300000       0.39400000
   175  H          0.96500000       0.10300000       0.10600000
   176  H          0.46500000       0.60300000       0.10600000
