data_DPYRAM01
_symmetry_space_group_name_H-M    'P1'
_symmetry_Int_Tables_number       1
loop_
_symmetry_equiv_pos_site_id
_symmetry_equiv_pos_as_xyz
1 x,y,z
_cell_length_a                   8.2292
_cell_length_b                   10.6543
_cell_length_c                   10.6682
_cell_angle_alpha                92.932
_cell_angle_beta                 93.012
_cell_angle_gamma                107.52
loop_
_atom_site_label
_atom_site_type_symbol
_atom_site_fract_x
_atom_site_fract_y
_atom_site_fract_z
     1  N          0.84212000       0.34292000       0.07972000
     2  N          0.15788000       0.65708000       0.92028000
     3  N          0.58262000       0.27422000       0.15972000
     4  N          0.41738000       0.72578000       0.84028000
     5  N          0.44562000       0.08142000       0.25482000
     6  N          0.55438000       0.91858000       0.74518000
     7  C          0.96693000       0.31982000       0.01662000
     8  C          0.03307000       0.68018000       0.98338000
     9  C          0.97063000       0.19702000       0.97777000
    10  C          0.02937000       0.80298000       0.02223000
    11  C          0.84003000       0.09112000       0.00742000
    12  C          0.15997000       0.90888000      -0.00742000
    13  C          0.71023000       0.10992000       0.07352000
    14  C          0.28977000       0.89008000       0.92648000
    15  C          0.71313000       0.23912000       0.10622000
    16  C          0.28687000       0.76088000       0.89378000
    17  C          0.44383000       0.19822000       0.21652000
    18  C          0.55617000       0.80178000       0.78348000
    19  C          0.31023000       0.24842000       0.23733000
    20  C          0.68977000       0.75158000       0.76267000
    21  C          0.17733000       0.17743000       0.30033000
    22  C          0.82267000       0.82257000       0.69967000
    23  C          0.17814000       0.05793000       0.33923000
    24  C          0.82186000       0.94207000       0.66077000
    25  C          0.31193000       0.01422000       0.31403000
    26  C          0.68807000      -0.01422000       0.68597000
    27  H          0.05520000       0.39720000      -0.00120000
    28  H          0.94480000       0.60280000       0.00120000
    29  H          0.06320000       0.18720000       0.93580000
    30  H          0.93680000       0.81280000       0.06420000
    31  H          0.84620000       0.00220000       0.97880000
    32  H          0.15380000      -0.00220000       0.02120000
    33  H          0.62020000       0.04120000       0.10120000
    34  H          0.37980000       0.95880000       0.89880000
    35  H          0.58820000       0.35820000       0.15420000
    36  H          0.41180000       0.64180000       0.84580000
    37  H          0.32330000       0.33520000       0.20820000
    38  H          0.67670000       0.66480000       0.79180000
    39  H          0.08430000       0.21420000       0.30820000
    40  H          0.91570000       0.78580000       0.69180000
    41  H          0.09230000       0.01020000       0.37520000
    42  H          0.90770000      -0.01020000       0.62480000
    43  H          0.31030000       0.92480000       0.34120000
    44  H          0.68970000       0.07520000       0.65880000
    45  N          0.62622000       0.57212000       0.17022000
    46  N          0.37378000       0.42788000       0.82978000
    47  N          0.87552000       0.57682000       0.27452000
    48  N          0.12448000       0.42318000       0.72548000
    49  N          0.05672000       0.71112000       0.43752000
    50  N          0.94328000       0.28888000       0.56248000
    51  C          0.50573000       0.62842000       0.13952000
    52  C          0.49427000       0.37158000       0.86048000
    53  C          0.50193000       0.74672000       0.19083000
    54  C          0.49807000       0.25328000       0.80917000
    55  C          0.62713000       0.81082000       0.28183000
    56  C          0.37287000       0.18918000       0.71817000
    57  C          0.75293000       0.75792000       0.31662000
    58  C          0.24707000       0.24208000       0.68338000
    59  C          0.75083000       0.63852000       0.25622000
    60  C          0.24917000       0.36148000       0.74378000
    61  C          0.02093000       0.60812000       0.35402000
    62  C         -0.02093000       0.39188000       0.64598000
    63  C          0.12543000       0.52672000       0.34372000
    64  C          0.87457000       0.47328000       0.65628000
    65  C          0.27023000       0.55323000       0.42063000
    66  C          0.72977000       0.44677000       0.57937000
    67  C          0.31013000       0.65963000       0.50693000
    68  C          0.68987000       0.34037000       0.49307000
    69  C          0.20303000       0.73323000       0.51222000
    70  C          0.79697000       0.26677000       0.48778000
    71  H          0.84120000       0.79820000       0.38820000
    72  H          0.15880000       0.20180000       0.61180000
    73  H          0.62530000       0.89020000       0.33520000
    74  H          0.37470000       0.10980000       0.66480000
    75  H          0.41820000       0.77520000       0.16620000
    76  H          0.58180000       0.22480000       0.83380000
    77  H          0.41720000       0.57920000       0.08320000
    78  H          0.58280000       0.42080000       0.91680000
    79  H          0.86220000       0.51020000       0.21820000
    80  H          0.13780000       0.48980000       0.78180000
    81  H          0.08620000       0.44820000       0.28120000
    82  H          0.91380000       0.55180000       0.71880000
    83  H          0.35540000       0.49230000       0.41430000
    84  H          0.64460000       0.50770000       0.58570000
    85  H          0.40030000       0.68020000       0.56320000
    86  H          0.59970000       0.31980000       0.43680000
    87  H          0.21420000       0.80320000       0.56820000
    88  H          0.78580000       0.19680000       0.43180000
