data_DPYRAM
_symmetry_space_group_name_H-M    'P1'
_symmetry_Int_Tables_number       1
loop_
_symmetry_equiv_pos_site_id
_symmetry_equiv_pos_as_xyz
1 x,y,z
_cell_length_a                   18.4165
_cell_length_b                   12.2945
_cell_length_c                   7.6917
_cell_angle_alpha                90.0
_cell_angle_beta                 90.0
_cell_angle_gamma                90.0
loop_
_atom_site_label
_atom_site_type_symbol
_atom_site_fract_x
_atom_site_fract_y
_atom_site_fract_z
     1  C          0.48050000       0.86970000       0.21680000
     2  C          0.01950000       0.63030000       0.21680000
     3  C          0.98050000       0.13030000       0.28320000
     4  C          0.51950000       0.36970000       0.28320000
     5  C          0.51950000       0.13030000       0.78320000
     6  C          0.98050000       0.36970000       0.78320000
     7  C          0.01950000       0.86970000       0.71680000
     8  C          0.48050000       0.63030000       0.71680000
     9  C          0.80070000       0.97830000       0.52730000
    10  C          0.69930000       0.52170000       0.52730000
    11  C          0.30070000       0.02170000       0.97270000
    12  C          0.19930000       0.47830000       0.97270000
    13  C          0.19930000       0.02170000       0.47270000
    14  C          0.30070000       0.47830000       0.47270000
    15  C          0.69930000       0.97830000       0.02730000
    16  C          0.80070000       0.52170000       0.02730000
    17  C          0.45240000       0.76920000       0.18380000
    18  C          0.04760000       0.73080000       0.18380000
    19  C          0.95240000       0.23080000       0.31620000
    20  C          0.54760000       0.26920000       0.31620000
    21  C          0.54760000       0.23080000       0.81620000
    22  C          0.95240000       0.26920000       0.81620000
    23  C          0.04760000       0.76920000       0.68380000
    24  C          0.45240000       0.73080000       0.68380000
    25  C          0.49550000       0.68060000       0.21830000
    26  C          0.00450000       0.81940000       0.21830000
    27  C         -0.00450000       0.31940000       0.28170000
    28  C          0.50450000       0.18060000       0.28170000
    29  C          0.50450000       0.31940000       0.78170000
    30  C         -0.00450000       0.18060000       0.78170000
    31  C          0.00450000       0.68060000       0.71830000
    32  C          0.49550000       0.81940000       0.71830000
    33  C          0.56350000       0.69640000       0.28460000
    34  C          0.93650000       0.80360000       0.28460000
    35  C          0.06350000       0.30360000       0.21540000
    36  C          0.43650000       0.19640000       0.21540000
    37  C          0.43650000       0.30360000       0.71540000
    38  C          0.06350000       0.19640000       0.71540000
    39  C          0.93650000       0.69640000       0.78460000
    40  C          0.56350000       0.80360000       0.78460000
    41  C          0.58760000       0.80180000       0.31620000
    42  C          0.91240000       0.69820000       0.31620000
    43  C          0.08760000       0.19820000       0.18380000
    44  C          0.41240000       0.30180000       0.18380000
    45  C          0.41240000       0.19820000       0.68380000
    46  C          0.08760000       0.30180000       0.68380000
    47  C          0.91240000       0.80180000       0.81620000
    48  C          0.58760000       0.69820000       0.81620000
    49  C          0.69120000       0.90730000       0.44510000
    50  C          0.80880000       0.59270000       0.44510000
    51  C          0.19120000       0.09270000       0.05490000
    52  C          0.30880000       0.40730000       0.05490000
    53  C          0.30880000       0.09270000       0.55490000
    54  C          0.19120000       0.40730000       0.55490000
    55  C          0.80880000       0.90730000       0.94510000
    56  C          0.69120000       0.59270000       0.94510000
    57  C          0.65580000       0.00300000       0.49340000
    58  C          0.84420000       0.49700000       0.49340000
    59  C          0.15580000      -0.00300000       0.00660000
    60  C          0.34420000       0.50300000       0.00660000
    61  C          0.34420000      -0.00300000       0.50660000
    62  C          0.15580000       0.50300000       0.50660000
    63  C          0.84420000       0.00300000      -0.00660000
    64  C          0.65580000       0.49700000      -0.00660000
    65  C          0.69640000       0.08680000       0.55800000
    66  C          0.80360000       0.41320000       0.55800000
    67  C          0.19640000       0.91320000       0.94200000
    68  C          0.30360000       0.58680000       0.94200000
    69  C          0.30360000       0.91320000       0.44200000
    70  C          0.19640000       0.58680000       0.44200000
    71  C          0.80360000       0.08680000       0.05800000
    72  C          0.69640000       0.41320000       0.05800000
    73  C          0.77040000       0.07610000       0.57420000
    74  C          0.72960000       0.42390000       0.57420000
    75  C          0.27040000       0.92390000       0.92580000
    76  C          0.22960000       0.57610000       0.92580000
    77  C          0.22960000       0.92390000       0.42580000
    78  C          0.27040000       0.57610000       0.42580000
    79  C          0.72960000       0.07610000       0.07420000
    80  C          0.77040000       0.42390000       0.07420000
    81  H          0.45400000       0.93500000       0.19000000
    82  H          0.04600000       0.56500000       0.19000000
    83  H          0.95400000       0.06500000       0.31000000
    84  H          0.54600000       0.43500000       0.31000000
    85  H          0.54600000       0.06500000       0.81000000
    86  H          0.95400000       0.43500000       0.81000000
    87  H          0.04600000       0.93500000       0.69000000
    88  H          0.45400000       0.56500000       0.69000000
    89  H          0.85000000       0.96700000       0.54100000
    90  H          0.65000000       0.53300000       0.54100000
    91  H          0.35000000       0.03300000       0.95900000
    92  H          0.15000000       0.46700000       0.95900000
    93  H          0.15000000       0.03300000       0.45900000
    94  H          0.35000000       0.46700000       0.45900000
    95  H          0.65000000       0.96700000       0.04100000
    96  H          0.85000000       0.53300000       0.04100000
    97  H          0.40300000       0.76300000       0.13100000
    98  H          0.09700000       0.73700000       0.13100000
    99  H          0.90300000       0.23700000       0.36900000
   100  H          0.59700000       0.26300000       0.36900000
   101  H          0.59700000       0.23700000       0.86900000
   102  H          0.90300000       0.26300000       0.86900000
   103  H          0.09700000       0.76300000       0.63100000
   104  H          0.40300000       0.73700000       0.63100000
   105  H          0.47900000       0.61100000       0.19000000
   106  H          0.02100000       0.88900000       0.19000000
   107  H          0.97900000       0.38900000       0.31000000
   108  H          0.52100000       0.11100000       0.31000000
   109  H          0.52100000       0.38900000       0.81000000
   110  H          0.97900000       0.11100000       0.81000000
   111  H          0.02100000       0.61100000       0.69000000
   112  H          0.47900000       0.88900000       0.69000000
   113  H          0.59400000       0.63500000       0.30700000
   114  H          0.90600000       0.86500000       0.30700000
   115  H          0.09400000       0.36500000       0.19300000
   116  H          0.40600000       0.13500000       0.19300000
   117  H          0.40600000       0.36500000       0.69300000
   118  H          0.09400000       0.13500000       0.69300000
   119  H          0.90600000       0.63500000       0.80700000
   120  H          0.59400000       0.86500000       0.80700000
   121  H          0.68100000       0.75600000       0.39600000
   122  H          0.81900000       0.74400000       0.39600000
   123  H          0.18100000       0.24400000       0.10400000
   124  H          0.31900000       0.25600000       0.10400000
   125  H          0.31900000       0.24400000       0.60400000
   126  H          0.18100000       0.25600000       0.60400000
   127  H          0.81900000       0.75600000       0.89600000
   128  H          0.68100000       0.74400000       0.89600000
   129  H          0.60500000       0.00800000       0.48100000
   130  H          0.89500000       0.49200000       0.48100000
   131  H          0.10500000      -0.00800000       0.01900000
   132  H          0.39500000       0.50800000       0.01900000
   133  H          0.39500000      -0.00800000       0.51900000
   134  H          0.10500000       0.50800000       0.51900000
   135  H          0.89500000       0.00800000       0.98100000
   136  H          0.60500000       0.49200000       0.98100000
   137  H          0.66800000       0.15600000       0.58900000
   138  H          0.83200000       0.34400000       0.58900000
   139  H          0.16800000       0.84400000       0.91100000
   140  H          0.33200000       0.65600000       0.91100000
   141  H          0.33200000       0.84400000       0.41100000
   142  H          0.16800000       0.65600000       0.41100000
   143  H          0.83200000       0.15600000       0.08900000
   144  H          0.66800000       0.34400000       0.08900000
   145  H          0.80000000       0.13500000       0.62200000
   146  H          0.70000000       0.36500000       0.62200000
   147  H          0.30000000       0.86500000       0.87800000
   148  H          0.20000000       0.63500000       0.87800000
   149  H          0.20000000       0.86500000       0.37800000
   150  H          0.30000000       0.63500000       0.37800000
   151  H          0.70000000       0.13500000       0.12200000
   152  H          0.80000000       0.36500000       0.12200000
   153  N          0.54690000       0.88880000       0.28250000
   154  N          0.95310000       0.61120000       0.28250000
   155  N          0.04690000       0.11120000       0.21750000
   156  N          0.45310000       0.38880000       0.21750000
   157  N          0.45310000       0.11120000       0.71750000
   158  N          0.04690000       0.38880000       0.71750000
   159  N          0.95310000       0.88880000       0.78250000
   160  N          0.54690000       0.61120000       0.78250000
   161  N          0.65640000       0.81570000       0.38340000
   162  N          0.84360000       0.68430000       0.38340000
   163  N          0.15640000       0.18430000       0.11660000
   164  N          0.34360000       0.31570000       0.11660000
   165  N          0.34360000       0.18430000       0.61660000
   166  N          0.15640000       0.31570000       0.61660000
   167  N          0.84360000       0.81570000       0.88340000
   168  N          0.65640000       0.68430000       0.88340000
   169  N          0.76300000       0.89460000       0.46240000
   170  N          0.73700000       0.60540000       0.46240000
   171  N          0.26300000       0.10540000       0.03760000
   172  N          0.23700000       0.39460000       0.03760000
   173  N          0.23700000       0.10540000       0.53760000
   174  N          0.26300000       0.39460000       0.53760000
   175  N          0.73700000       0.89460000       0.96240000
   176  N          0.76300000       0.60540000       0.96240000
