data_DPYRAM02
_symmetry_space_group_name_H-M    'P1'
_symmetry_Int_Tables_number       1
loop_
_symmetry_equiv_pos_site_id
_symmetry_equiv_pos_as_xyz
1 x,y,z
_cell_length_a                   8.9581
_cell_length_b                   8.1611
_cell_length_c                   24.1041
_cell_angle_alpha                90.0
_cell_angle_beta                 98.981
_cell_angle_gamma                90.0
loop_
_atom_site_label
_atom_site_type_symbol
_atom_site_fract_x
_atom_site_fract_y
_atom_site_fract_z
     1  N          0.65800880       0.45911130       0.45418400
     2  N          0.34199120       0.95911130       0.04581600
     3  N          0.34199120       0.54088870       0.54581600
     4  N          0.65800880       0.04088870       0.95418400
     5  H          0.57308300       0.42211900       0.46756000
     6  H          0.42691700       0.92211900       0.03244000
     7  H          0.42691700       0.57788100       0.53244000
     8  H          0.57308300       0.07788100       0.96756000
     9  N          0.63074880       0.67250140       0.51312500
    10  N          0.36925120       0.17250140       0.98687500
    11  N          0.36925120       0.32749860       0.48687500
    12  N          0.63074880       0.82749860       0.01312500
    13  C          0.72029870       0.59981150       0.48066500
    14  C          0.27970130       0.09981150       0.01933500
    15  C          0.27970130       0.40018850       0.51933500
    16  C          0.72029870       0.90018850       0.98066500
    17  C          0.86508860       0.65792000       0.47631500
    18  C          0.13491140       0.15792000       0.02368500
    19  C          0.13491140       0.34208000       0.52368500
    20  C          0.86508860       0.84208000       0.97631500
    21  H          0.92608860       0.60452000       0.45291500
    22  H          0.07391140       0.10452000       0.04708500
    23  H          0.07391140       0.39548000       0.54708500
    24  H          0.92608860       0.89548000       0.95291500
    25  C          0.91649860       0.79472000       0.50694600
    26  C          0.08350140       0.29472000       0.99305400
    27  C          0.08350140       0.20528000       0.49305400
    28  C          0.91649860       0.70528000       0.00694600
    29  H          0.01415140       0.83712000       0.50470600
    30  H         -0.01415140       0.33712000      -0.00470600
    31  H         -0.01415140       0.16288000       0.49529400
    32  H          0.01415140       0.66288000       0.00470600
    33  C          0.82628000       0.87072000       0.54097600
    34  C          0.17372000       0.37072000       0.95902400
    35  C          0.17372000       0.12928000       0.45902400
    36  C          0.82628000       0.62928000       0.04097600
    37  H          0.86018000       0.96512000       0.56234600
    38  H          0.13982000       0.46512000       0.93765400
    39  H          0.13982000       0.03488000       0.43765400
    40  H          0.86018000       0.53488000       0.06234600
    41  C          0.68608000       0.80472000       0.54275600
    42  C          0.31392000       0.30472000       0.95724400
    43  C          0.31392000       0.19528000       0.45724400
    44  C          0.68608000       0.69528000       0.04275600
    45  H          0.62428000       0.85562000       0.56640600
    46  H          0.37572000       0.35562000       0.93359400
    47  H          0.37572000       0.14438000       0.43359400
    48  H          0.62428000       0.64438000       0.06640600
    49  N          0.80529880       0.41910130       0.38303400
    50  N          0.19470120       0.91910130       0.11696600
    51  N          0.19470120       0.58089870       0.61696600
    52  N          0.80529880       0.08089870       0.88303400
    53  C          0.72366870       0.35433150       0.41936500
    54  C          0.27633130       0.85433150       0.08063500
    55  C          0.27633130       0.64566850       0.58063500
    56  C          0.72366870       0.14566850       0.91936500
    57  C          0.69746850       0.18552000       0.42231600
    58  C          0.30253150       0.68552000       0.07768400
    59  C          0.30253150       0.81448000       0.57768400
    60  C          0.69746850       0.31448000       0.92231600
    61  H          0.64121850       0.14242000       0.44928600
    62  H          0.35878150       0.64242000       0.05071400
    63  H          0.35878150       0.85758000       0.55071400
    64  H          0.64121850       0.35758000       0.94928600
    65  C          0.75468000       0.08342000       0.38541600
    66  C          0.24532000       0.58342000       0.11458400
    67  C          0.24532000       0.91658000       0.61458400
    68  C          0.75468000       0.41658000       0.88541600
    69  H          0.73668000       0.96868000       0.38606600
    70  H          0.26332000       0.46868000       0.11393400
    71  H          0.26332000       0.03132000       0.61393400
    72  H          0.73668000       0.53132000       0.88606600
    73  C          0.83898000       0.14922000       0.34729600
    74  C          0.16102000       0.64922000       0.15270400
    75  C          0.16102000       0.85078000       0.65270400
    76  C          0.83898000       0.35078000       0.84729600
    77  H          0.87928000       0.08152000       0.32121600
    78  H          0.12072000       0.58152000       0.17878400
    79  H          0.12072000       0.91848000       0.67878400
    80  H          0.87928000       0.41848000       0.82121600
    81  C          0.86228000       0.31602000       0.34838600
    82  C          0.13772000       0.81602000       0.15161400
    83  C          0.13772000       0.68398000       0.65161400
    84  C          0.86228000       0.18398000       0.84838600
    85  H          0.92258000       0.36092000       0.32300600
    86  H          0.07742000       0.86092000       0.17699400
    87  H          0.07742000       0.63908000       0.67699400
    88  H          0.92258000       0.13908000       0.82300600
    89  N          0.91879880       0.71748140       0.32975500
    90  N          0.08120120       0.21748140       0.17024500
    91  N          0.08120120       0.28251860       0.67024500
    92  N          0.91879880       0.78251860       0.82975500
    93  H          0.88858100       0.64892200       0.35357000
    94  H          0.11141900       0.14892200       0.14643000
    95  H          0.11141900       0.35107800       0.64643000
    96  H          0.88858100       0.85107800       0.85357000
    97  N          0.13786130       0.68009140       0.38962400
    98  N          0.86213870       0.18009140       0.11037600
    99  N          0.86213870       0.31990860       0.61037600
   100  N          0.13786130       0.81990860       0.88962400
   101  C          0.07076140       0.75635150       0.34300500
   102  C          0.92923860       0.25635150       0.15699500
   103  C          0.92923860       0.24364850       0.65699500
   104  C          0.07076140       0.74364850       0.84300500
   105  C          0.14798150       0.86662000       0.31321600
   106  C          0.85201850       0.36662000       0.18678400
   107  C          0.85201850       0.13338000       0.68678400
   108  C          0.14798150       0.63338000       0.81321600
   109  H          0.09777150       0.92092000       0.28071600
   110  H          0.90222850       0.42092000       0.21928400
   111  H          0.90222850       0.07908000       0.71928400
   112  H          0.09777150       0.57908000       0.78071600
   113  C          0.29952000       0.89412000       0.33246600
   114  C          0.70048000       0.39412000       0.16753400
   115  C          0.70048000       0.10588000       0.66753400
   116  C          0.29952000       0.60588000       0.83246600
   117  H          0.35492000       0.96832000       0.31312600
   118  H          0.64508000       0.46832000       0.18687400
   119  H          0.64508000       0.03168000       0.68687400
   120  H          0.35492000       0.53168000       0.81312600
   121  C          0.37042000       0.81382000       0.37979600
   122  C          0.62958000       0.31382000       0.12020400
   123  C          0.62958000       0.18618000       0.62020400
   124  C          0.37042000       0.68618000       0.87979600
   125  H          0.47472000       0.83032000       0.39333600
   126  H          0.52528000       0.33032000       0.10666400
   127  H          0.52528000       0.16968000       0.60666400
   128  H          0.47472000       0.66968000       0.89333600
   129  C          0.28492000       0.70942000       0.40659600
   130  C          0.71508000       0.20942000       0.09340400
   131  C          0.71508000       0.29058000       0.59340400
   132  C          0.28492000       0.79058000       0.90659600
   133  H          0.33322000       0.65442000       0.43927600
   134  H          0.66678000       0.15442000       0.06072400
   135  H          0.66678000       0.34558000       0.56072400
   136  H          0.33322000       0.84558000       0.93927600
   137  N          0.85787860       0.83122000       0.23975500
   138  N          0.14212140       0.33122000       0.26024500
   139  N          0.14212140       0.16878000       0.76024500
   140  N          0.85787860       0.66878000       0.73975500
   141  C          0.81308860       0.75702000       0.28350500
   142  C          0.18691140       0.25702000       0.21649500
   143  C          0.18691140       0.24298000       0.71649500
   144  C          0.81308860       0.74298000       0.78350500
   145  C          0.66148000       0.71702000       0.28532600
   146  C          0.33852000       0.21702000       0.21467400
   147  C          0.33852000       0.28298000       0.71467400
   148  C          0.66148000       0.78298000       0.78532600
   149  H          0.63368000       0.66182000       0.31688600
   150  H          0.36632000       0.16182000       0.18311400
   151  H          0.36632000       0.33818000       0.68311400
   152  H          0.63368000       0.83818000       0.81688600
   153  C          0.55478000       0.75912000       0.24071700
   154  C          0.44522000       0.25912000       0.25928300
   155  C          0.44522000       0.24088000       0.75928300
   156  C          0.55478000       0.74088000       0.74071700
   157  H          0.45138000       0.73362000       0.24086700
   158  H          0.54862000       0.23362000       0.25913300
   159  H          0.54862000       0.26638000       0.75913300
   160  H          0.45138000       0.76638000       0.74086700
   161  C          0.59898000       0.83922000       0.19520700
   162  C          0.40102000       0.33922000       0.30479300
   163  C          0.40102000       0.16078000       0.80479300
   164  C          0.59898000       0.66078000       0.69520700
   165  H          0.52668000       0.87172000       0.16403700
   166  H          0.47332000       0.37172000       0.33596300
   167  H          0.47332000       0.12828000       0.83596300
   168  H          0.52668000       0.62828000       0.66403700
   169  C          0.74958000       0.87022000       0.19647700
   170  C          0.25042000       0.37022000       0.30352300
   171  C          0.25042000       0.12978000       0.80352300
   172  C          0.74958000       0.62978000       0.69647700
   173  H          0.77968000       0.92252000       0.16479700
   174  H          0.22032000       0.42252000       0.33520300
   175  H          0.22032000       0.07748000       0.83520300
   176  H          0.77968000       0.57748000       0.66479700
