data_DUDCUC
_symmetry_space_group_name_H-M    'P1'
_symmetry_Int_Tables_number       1
loop_
_symmetry_equiv_pos_site_id
_symmetry_equiv_pos_as_xyz
1 x,y,z
_cell_length_a                   31.60096
_cell_length_b                   5.640701
_cell_length_c                   11.50872
_cell_angle_alpha                90.0
_cell_angle_beta                 110.9692
_cell_angle_gamma                90.0
loop_
_atom_site_label
_atom_site_type_symbol
_atom_site_fract_x
_atom_site_fract_y
_atom_site_fract_z
     1  N          0.92558300       0.53413170       0.41019900
     2  N          0.07441700       0.53413170       0.08980100
     3  N          0.42558300       0.03413170       0.41019900
     4  N          0.57441700       0.03413170       0.08980100
     5  N          0.07441700       0.46586830       0.58980100
     6  N          0.92558300       0.46586830       0.91019900
     7  N          0.57441700       0.96586830       0.58980100
     8  N          0.42558300       0.96586830       0.91019900
     9  C          0.90662300       0.61534190       0.48930100
    10  C          0.09337700       0.61534190       0.01069900
    11  C          0.40662300       0.11534190       0.48930100
    12  C          0.59337700       0.11534190       0.01069900
    13  C          0.09337700       0.38465810       0.51069900
    14  C          0.90662300       0.38465810      -0.01069900
    15  C          0.59337700       0.88465810       0.51069900
    16  C          0.40662300       0.88465810      -0.01069900
    17  C          0.91325400       0.51662000       0.60480100
    18  C          0.08674600       0.51662000       0.89519900
    19  C          0.41325400       0.01662000       0.60480100
    20  C          0.58674600       0.01662000       0.89519900
    21  C          0.08674600       0.48338000       0.39519900
    22  C          0.91325400       0.48338000       0.10480100
    23  C          0.58674600      -0.01662000       0.39519900
    24  C          0.41325400      -0.01662000       0.10480100
    25  H          0.89915000       0.58530000       0.65861400
    26  H          0.10085000       0.58530000       0.84138600
    27  H          0.39915000       0.08530000       0.65861400
    28  H          0.60085000       0.08530000       0.84138600
    29  H          0.10085000       0.41470000       0.34138600
    30  H          0.89915000       0.41470000       0.15861400
    31  H          0.60085000       0.91470000       0.34138600
    32  H          0.39915000       0.91470000       0.15861400
    33  C          0.94083400       0.31822000       0.63882110
    34  C          0.05916600       0.31822000       0.86117890
    35  C          0.44083400       0.81822000       0.63882110
    36  C          0.55916600       0.81822000       0.86117890
    37  C          0.05916600       0.68178000       0.36117890
    38  C          0.94083400       0.68178000       0.13882110
    39  C          0.55916600       0.18178000       0.36117890
    40  C          0.44083400       0.18178000       0.13882110
    41  H          0.94595000       0.24430000       0.71991500
    42  H          0.05405000       0.24430000       0.78008500
    43  H          0.44595000       0.74430000       0.71991500
    44  H          0.55405000       0.74430000       0.78008500
    45  H          0.05405000       0.75570000       0.28008500
    46  H          0.94595000       0.75570000       0.21991500
    47  H          0.55405000       0.25570000       0.28008500
    48  H          0.44595000       0.25570000       0.21991500
    49  C          0.96038400       0.22572000       0.55844110
    50  C          0.03961600       0.22572000       0.94155890
    51  C          0.46038400       0.72572000       0.55844110
    52  C          0.53961600       0.72572000       0.94155890
    53  C          0.03961600       0.77428000       0.44155890
    54  C          0.96038400       0.77428000       0.05844110
    55  C          0.53961600       0.27428000       0.44155890
    56  C          0.46038400       0.27428000       0.05844110
    57  H          0.97935000       0.08530000       0.57801300
    58  H          0.02065000       0.08530000       0.92198700
    59  H          0.47935000       0.58530000       0.57801300
    60  H          0.52065000       0.58530000       0.92198700
    61  H          0.02065000       0.91470000       0.42198700
    62  H          0.97935000       0.91470000       0.07801300
    63  H          0.52065000       0.41470000       0.42198700
    64  H          0.47935000       0.41470000       0.07801300
    65  C          0.95099400       0.34542000       0.44727100
    66  C          0.04900600       0.34542000       0.05272900
    67  C          0.45099400       0.84542000       0.44727100
    68  C          0.54900600       0.84542000       0.05272900
    69  C          0.04900600       0.65458000       0.55272900
    70  C          0.95099400       0.65458000       0.94727100
    71  C          0.54900600       0.15458000       0.55272900
    72  C          0.45099400       0.15458000       0.94727100
    73  N          0.87824300       0.81578160       0.44704800
    74  N          0.12175700       0.81578160       0.05295200
    75  N          0.37824300       0.31578160       0.44704800
    76  N          0.62175700       0.31578160       0.05295200
    77  N          0.12175700       0.18421840       0.55295200
    78  N          0.87824300       0.18421840       0.94704800
    79  N          0.62175700       0.68421840       0.55295200
    80  N          0.37824300       0.68421840       0.94704800
    81  N          0.85827300       0.91370160       0.52270800
    82  N          0.14172700       0.91370160       0.97729200
    83  N          0.35827300       0.41370160       0.52270800
    84  N          0.64172700       0.41370160       0.97729200
    85  N          0.14172700       0.08629840       0.47729200
    86  N          0.85827300       0.08629840       0.02270800
    87  N          0.64172700       0.58629840       0.47729200
    88  N          0.35827300       0.58629840       0.02270800
    89  C          0.83414300       0.09433190       0.45451100
    90  C          0.16585700       0.09433190       0.04548900
    91  C          0.33414300       0.59433190       0.45451100
    92  C          0.66585700       0.59433190       0.04548900
    93  C          0.16585700       0.90566810       0.54548900
    94  C          0.83414300       0.90566810       0.95451100
    95  C          0.66585700       0.40566810       0.54548900
    96  C          0.33414300       0.40566810       0.95451100
    97  C          0.80721400       0.26032000       0.48978100
    98  C          0.19278600       0.26032000       0.01021900
    99  C          0.30721400       0.76032000       0.48978100
   100  C          0.69278600       0.76032000       0.01021900
   101  C          0.19278600       0.73968000       0.51021900
   102  C          0.80721400       0.73968000      -0.01021900
   103  C          0.69278600       0.23968000       0.51021900
   104  C          0.30721400       0.23968000      -0.01021900
   105  H          0.80375000       0.24630000       0.57241400
   106  H          0.19625000       0.24630000       0.92758600
   107  H          0.30375000       0.74630000       0.57241400
   108  H          0.69625000       0.74630000       0.92758600
   109  H          0.19625000       0.75370000       0.42758600
   110  H          0.80375000       0.75370000       0.07241400
   111  H          0.69625000       0.25370000       0.42758600
   112  H          0.30375000       0.25370000       0.07241400
   113  C          0.78629400       0.43482000       0.40637110
   114  C          0.21370600       0.43482000       0.09362890
   115  C          0.28629400       0.93482000       0.40637110
   116  C          0.71370600       0.93482000       0.09362890
   117  C          0.21370600       0.56518000       0.59362890
   118  C          0.78629400       0.56518000       0.90637110
   119  C          0.71370600       0.06518000       0.59362890
   120  C          0.28629400       0.06518000       0.90637110
   121  H          0.76705000       0.55530000       0.42721400
   122  H          0.23295000       0.55530000       0.07278600
   123  H          0.26705000       0.05530000       0.42721400
   124  H          0.73295000       0.05530000       0.07278600
   125  H          0.23295000       0.44470000       0.57278600
   126  H          0.76705000       0.44470000       0.92721400
   127  H          0.73295000       0.94470000       0.57278600
   128  H          0.26705000       0.94470000       0.92721400
   129  C          0.79069400       0.45042000       0.28739110
   130  C          0.20930600       0.45042000       0.21260890
   131  C          0.29069400       0.95042000       0.28739110
   132  C          0.70930600       0.95042000       0.21260890
   133  C          0.20930600       0.54958000       0.71260890
   134  C          0.79069400       0.54958000       0.78739110
   135  C          0.70930600       0.04958000       0.71260890
   136  C          0.29069400       0.04958000       0.78739110
   137  H          0.77545000       0.57330000       0.23481400
   138  H          0.22455000       0.57330000       0.26518600
   139  H          0.27545000       0.07330000       0.23481400
   140  H          0.72455000       0.07330000       0.26518600
   141  H          0.22455000       0.42670000       0.76518600
   142  H          0.77545000       0.42670000       0.73481400
   143  H          0.72455000       0.92670000       0.76518600
   144  H          0.27545000       0.92670000       0.73481400
   145  C          0.81638400       0.29322000       0.25079100
   146  C          0.18361600       0.29322000       0.24920900
   147  C          0.31638400       0.79322000       0.25079100
   148  C          0.68361600       0.79322000       0.24920900
   149  C          0.18361600       0.70678000       0.74920900
   150  C          0.81638400       0.70678000       0.75079100
   151  C          0.68361600       0.20678000       0.74920900
   152  C          0.31638400       0.20678000       0.75079100
   153  H          0.81935000       0.30630000       0.16931400
   154  H          0.18065000       0.30630000       0.33068600
   155  H          0.31935000       0.80630000       0.16931400
   156  H          0.68065000       0.80630000       0.33068600
   157  H          0.18065000       0.69370000       0.83068600
   158  H          0.81935000       0.69370000       0.66931400
   159  H          0.68065000       0.19370000       0.83068600
   160  H          0.31935000       0.19370000       0.66931400
   161  C          0.83892300       0.11041190       0.33590100
   162  C          0.16107700       0.11041190       0.16409900
   163  C          0.33892300       0.61041190       0.33590100
   164  C          0.66107700       0.61041190       0.16409900
   165  C          0.16107700       0.88958810       0.66409900
   166  C          0.83892300       0.88958810       0.83590100
   167  C          0.66107700       0.38958810       0.66409900
   168  C          0.33892300       0.38958810       0.83590100
   169  C          0.86774400       0.92591190       0.33526100
   170  C          0.13225600       0.92591190       0.16473900
   171  C          0.36774400       0.42591190       0.33526100
   172  C          0.63225600       0.42591190       0.16473900
   173  C          0.13225600       0.07408810       0.66473900
   174  C          0.86774400       0.07408810       0.83526100
   175  C          0.63225600       0.57408810       0.66473900
   176  C          0.36774400       0.57408810       0.83526100
   177  H          0.87945000       0.87430000       0.27281300
   178  H          0.12055000       0.87430000       0.22718700
   179  H          0.37945000       0.37430000       0.27281300
   180  H          0.62055000       0.37430000       0.22718700
   181  H          0.12055000       0.12570000       0.72718700
   182  H          0.87945000       0.12570000       0.77281300
   183  H          0.62055000       0.62570000       0.72718700
   184  H          0.37945000       0.62570000       0.77281300
   185  F          0.96970300       0.26442140       0.36603700
   186  F          0.03029700       0.26442140       0.13396300
   187  F          0.46970300       0.76442140       0.36603700
   188  F          0.53029700       0.76442140       0.13396300
   189  F          0.03029700       0.73557860       0.63396300
   190  F          0.96970300       0.73557860       0.86603700
   191  F          0.53029700       0.23557860       0.63396300
   192  F          0.46970300       0.23557860       0.86603700
