data_DUDCUC01
_symmetry_space_group_name_H-M    'P1'
_symmetry_Int_Tables_number       1
loop_
_symmetry_equiv_pos_site_id
_symmetry_equiv_pos_as_xyz
1 x,y,z
_cell_length_a                   6.72864
_cell_length_b                   7.09235
_cell_length_c                   11.21947
_cell_angle_alpha                78.8885
_cell_angle_beta                 82.2615
_cell_angle_gamma                64.1577
loop_
_atom_site_label
_atom_site_type_symbol
_atom_site_fract_x
_atom_site_fract_y
_atom_site_fract_z
     1  N          0.29370180       0.76436170       0.27801100
     2  N          0.70629820       0.23563830       0.72198900
     3  C          0.38252000       0.77581180       0.37483120
     4  C          0.61748000       0.22418820       0.62516880
     5  C          0.57062000       0.81052000       0.36983120
     6  C          0.42938000       0.18948000       0.63016880
     7  H          0.62830000       0.82120000       0.44051600
     8  H          0.37170000       0.17880000       0.55948400
     9  C          0.67612000       0.83232000       0.25595120
    10  C          0.32388000       0.16768000       0.74404880
    11  H          0.80630000       0.85520000       0.24851500
    12  H          0.19370000       0.14480000       0.75148500
    13  C          0.58872000       0.82182000       0.15370120
    14  C          0.41128000       0.17818000       0.84629880
    15  H          0.66230000       0.83730000       0.07311700
    16  H          0.33770000       0.16270000       0.92688300
    17  C          0.39932000       0.78792000       0.17359120
    18  C          0.60068000       0.21208000       0.82640880
    19  N          0.26719170       0.74972150       0.48773900
    20  N          0.73280830       0.25027850       0.51226100
    21  N          0.34340180       0.75940160       0.59212900
    22  N          0.65659820       0.24059840       0.40787100
    23  C          0.19502000       0.73260180       0.67852110
    24  C          0.80498000       0.26739820       0.32147890
    25  C          0.19502000       0.72748190       0.80621110
    26  C          0.80498000       0.27251810       0.19378890
    27  H          0.31630000       0.74620000       0.83761500
    28  H          0.68370000       0.25380000       0.16238500
    29  C          0.02732000       0.69802000       0.87798120
    30  C          0.97268000       0.30198000       0.12201880
    31  H          0.02330000       0.69330000       0.96811600
    32  H          0.97670000       0.30670000       0.03188400
    33  C          0.85718000       0.67162000       0.82873120
    34  C          0.14282000       0.32838000       0.17126880
    35  H          0.74470000       0.64930000       0.88381600
    36  H          0.25530000       0.35070000       0.11618400
    37  C          0.85318000       0.67562000       0.70635120
    38  C          0.14682000       0.32438000       0.29364880
    39  H          0.73370000       0.66130000       0.67511500
    40  H          0.26630000       0.33870000       0.32488500
    41  C          0.02502000       0.70705180       0.62925110
    42  C          0.97498000       0.29294820       0.37074890
    43  C          0.07992000       0.71836190       0.50508110
    44  C          0.92008000       0.28163810       0.49491890
    45  H          0.01030000       0.70520000       0.44251600
    46  H          0.98970000       0.29480000       0.55748400
    47  F          0.30815160       0.77674150       0.07619700
    48  F          0.69184840       0.22325850       0.92380300
