data_DUDCUC02
_symmetry_space_group_name_H-M    'P1'
_symmetry_Int_Tables_number       1
loop_
_symmetry_equiv_pos_site_id
_symmetry_equiv_pos_as_xyz
1 x,y,z
_cell_length_a                   5.69832
_cell_length_b                   11.45985
_cell_length_c                   14.74606
_cell_angle_alpha                90.0
_cell_angle_beta                 90.0
_cell_angle_gamma                90.0
loop_
_atom_site_label
_atom_site_type_symbol
_atom_site_fract_x
_atom_site_fract_y
_atom_site_fract_z
     1  N          0.18534000       0.08742170       0.57093130
     2  N          0.31466000       0.91257830       0.07093130
     3  N          0.68534000       0.41257830       0.42906870
     4  N          0.81466000       0.58742170       0.92906870
     5  C          0.26894000      -0.01172000       0.53584150
     6  C          0.23106000       0.01172000       0.03584150
     7  C          0.76894000       0.51172000       0.46415850
     8  C          0.73106000       0.48828000       0.96415850
     9  C          0.17414000       0.87898000       0.55147150
    10  C          0.32586000       0.12102000       0.05147150
    11  C          0.67414000       0.62102000       0.44852850
    12  C          0.82586000       0.37898000       0.94852850
    13  H          0.24060000       0.81070000       0.52540000
    14  H          0.25940000       0.18930000       0.02540000
    15  H          0.74060000       0.68930000       0.47460000
    16  H          0.75940000       0.31070000       0.97460000
    17  C         -0.02225000       0.87348000       0.60691170
    18  C          0.52225000       0.12652000       0.10691170
    19  C          0.47775000       0.62652000       0.39308830
    20  C          0.02225000       0.37348000       0.89308830
    21  H          0.90670000       0.80020000       0.61920000
    22  H          0.59330000       0.19980000       0.11920000
    23  H          0.40670000       0.69980000       0.38080000
    24  H          0.09330000       0.30020000       0.88080000
    25  C          0.88494000       0.97348000       0.64424160
    26  C          0.61506000       0.02652000       0.14424160
    27  C          0.38494000       0.52652000       0.35575840
    28  C          0.11506000       0.47348000       0.85575840
    29  H          0.75060000       0.97210000       0.68240000
    30  H          0.74940000       0.02790000       0.18240000
    31  H          0.25060000       0.52790000       0.31760000
    32  H          0.24940000       0.47210000       0.81760000
    33  C         -0.00035000       0.07602000       0.62260160
    34  C          0.50035000       0.92398000       0.12260160
    35  C          0.49965000       0.42398000       0.37739840
    36  C          0.00035000       0.57602000       0.87739840
    37  N          0.46943000       0.00190160       0.47945120
    38  N          0.03057000      -0.00190160       0.97945120
    39  N          0.96943000       0.49809840       0.52054880
    40  N          0.53057000       0.50190160       0.02054880
    41  N          0.56934000       0.90565840       0.44170130
    42  N          0.93066000       0.09434160       0.94170130
    43  N          0.06934000       0.59434160       0.55829870
    44  N          0.43066000       0.40565840       0.05829870
    45  C          0.74994000       0.94948000       0.39416150
    46  C          0.75006000       0.05052000       0.89416150
    47  C          0.24994000       0.55052000       0.60583850
    48  C          0.25006000       0.44948000       0.10583850
    49  C          0.92064000       0.88788000       0.34346150
    50  C          0.57936000       0.11212000       0.84346150
    51  C          0.42064000       0.61212000       0.65653850
    52  C          0.07936000       0.38788000       0.15653850
    53  H          0.91310000       0.80550000       0.33760000
    54  H          0.58690000       0.19450000       0.83760000
    55  H          0.41310000       0.69450000       0.66240000
    56  H          0.08690000       0.30550000       0.16240000
    57  C          0.09585000       0.94988000       0.30327160
    58  C          0.40415000       0.05012000       0.80327160
    59  C          0.59585000       0.55012000       0.69672840
    60  C          0.90415000       0.44988000       0.19672840
    61  H          0.21310000       0.90950000       0.26990000
    62  H          0.28690000       0.09050000       0.76990000
    63  H          0.71310000       0.59050000       0.73010000
    64  H          0.78690000       0.40950000       0.23010000
    65  C          0.10775000       0.07432000       0.31002160
    66  C          0.39225000       0.92568000       0.81002160
    67  C          0.60775000       0.42568000       0.68997840
    68  C          0.89225000       0.57432000       0.18997840
    69  H          0.23240000       0.11440000       0.28080000
    70  H          0.26760000       0.88560000       0.78080000
    71  H          0.73240000       0.38560000       0.71920000
    72  H          0.76760000       0.61440000       0.21920000
    73  C          0.94534000       0.13662000       0.35723150
    74  C          0.55466000       0.86338000       0.85723150
    75  C          0.44534000       0.36338000       0.64276850
    76  C          0.05466000       0.63662000       0.14276850
    77  H          0.95380000       0.21920000       0.36050000
    78  H          0.54620000       0.78080000       0.86050000
    79  H          0.45380000       0.28080000       0.63950000
    80  H          0.04620000       0.71920000       0.13950000
    81  C          0.76234000       0.07422000       0.40148160
    82  C          0.73766000       0.92578000       0.90148160
    83  C          0.26234000       0.42578000       0.59851840
    84  C          0.23766000       0.57422000       0.09851840
    85  C          0.57724000       0.10381190       0.45759150
    86  C          0.92276000       0.89618810       0.95759150
    87  C          0.07724000       0.39618810       0.54240850
    88  C          0.42276000       0.60381190       0.04240850
    89  H          0.53420000       0.17990000       0.47690000
    90  H          0.96580000       0.82010000       0.97690000
    91  H          0.03420000       0.32010000       0.52310000
    92  H          0.46580000       0.67990000       0.02310000
    93  F          0.91813000       0.17698130       0.65772100
    94  F          0.58187000       0.82301870       0.15772100
    95  F          0.41813000       0.32301870       0.34227900
    96  F          0.08187000       0.67698130       0.84227900
