data_DUDZIL01
_symmetry_space_group_name_H-M    'P1'
_symmetry_Int_Tables_number       1
loop_
_symmetry_equiv_pos_site_id
_symmetry_equiv_pos_as_xyz
1 x,y,z
_cell_length_a                   5.735815
_cell_length_b                   14.6932
_cell_length_c                   13.112012
_cell_angle_alpha                90.0
_cell_angle_beta                 98.874
_cell_angle_gamma                90.0
loop_
_atom_site_label
_atom_site_type_symbol
_atom_site_fract_x
_atom_site_fract_y
_atom_site_fract_z
     1  O          0.46407000       0.41489110       0.05411120
     2  O          0.53593000       0.91489110       0.44588880
     3  O          0.53593000       0.58510890       0.94588880
     4  O          0.46407000       0.08510890       0.55411120
     5  O          0.46643000       0.15099110       0.01306130
     6  O          0.53357000       0.65099110       0.48693870
     7  O          0.53357000       0.84900890       0.98693870
     8  O          0.46643000       0.34900890       0.51306130
     9  O          0.42383000       0.21949110       0.15571130
    10  O          0.57617000       0.71949110       0.34428870
    11  O          0.57617000       0.78050890       0.84428870
    12  O          0.42383000       0.28050890       0.65571130
    13  N          0.52637000       0.35760130       0.86744860
    14  N          0.47363000       0.85760130       0.63255140
    15  N          0.47363000       0.64239870       0.13255140
    16  N          0.52637000       0.14239870       0.36744860
    17  H          0.48097000       0.34549130       0.80328860
    18  H          0.51903000       0.84549130       0.69671140
    19  H          0.51903000       0.65450870       0.19671140
    20  H          0.48097000       0.15450870       0.30328860
    21  H          0.44187000       0.39209130       0.90010860
    22  H          0.55813000       0.89209130       0.59989140
    23  H          0.55813000       0.60790870       0.09989140
    24  H          0.44187000       0.10790870       0.40010860
    25  N          0.35723000       0.20151130       0.06322000
    26  N          0.64277000       0.70151130       0.43678000
    27  N          0.64277000       0.79848870       0.93678000
    28  N          0.35723000       0.29848870       0.56322000
    29  C          0.81126000       0.34144140       0.02202000
    30  C          0.18874000       0.84144140       0.47798000
    31  C          0.18874000       0.65855860       0.97798000
    32  C          0.81126000       0.15855860       0.52202000
    33  C          0.72836000       0.32282150       0.91638000
    34  C          0.27164000       0.82282150       0.58362000
    35  C          0.27164000       0.67717850       0.08362000
    36  C          0.72836000       0.17717850       0.41638000
    37  C          0.86526000       0.26626150       0.86158000
    38  C          0.13474000       0.76626150       0.63842000
    39  C          0.13474000       0.73373850       0.13842000
    40  C          0.86526000       0.23373850       0.36158000
    41  H          0.81646000       0.25601150       0.79158000
    42  H          0.18354000       0.75601150       0.70842000
    43  H          0.18354000       0.74398850       0.20842000
    44  H          0.81646000       0.24398850       0.29158000
    45  C          0.06774000       0.22643150       0.90948000
    46  C          0.93226000       0.72643150       0.59052000
    47  C          0.93226000       0.77356850       0.09052000
    48  C          0.06774000       0.27356850       0.40948000
    49  H          0.15514000       0.18875150       0.87268000
    50  H          0.84486000       0.68875150       0.62732000
    51  H          0.84486000       0.81124850       0.12732000
    52  H          0.15514000       0.31124850       0.37268000
    53  C          0.14124000       0.24266140       0.01302000
    54  C          0.85876000       0.74266140       0.48698000
    55  C          0.85876000       0.75733860       0.98698000
    56  C          0.14124000       0.25733860       0.51302000
    57  C          0.01884000       0.29928140       0.06772000
    58  C         -0.01884000       0.79928140       0.43228000
    59  C         -0.01884000       0.70071860       0.93228000
    60  C          0.01884000       0.20071860       0.56772000
    61  H          0.07504000       0.31002140       0.13702000
    62  H          0.92496000       0.81002140       0.36298000
    63  H          0.92496000       0.68997860       0.86298000
    64  H          0.07504000       0.18997860       0.63702000
    65  C          0.67526000       0.39855150       0.08322000
    66  C          0.32474000       0.89855150       0.41678000
    67  C          0.32474000       0.60144850       0.91678000
    68  C          0.67526000       0.10144850       0.58322000
    69  C          0.78916000       0.43948140       0.18192000
    70  C          0.21084000       0.93948140       0.31808000
    71  C          0.21084000       0.56051860       0.81808000
    72  C          0.78916000       0.06051860       0.68192000
    73  C          0.00564000       0.48268150       0.19282000
    74  C         -0.00564000       0.98268150       0.30718000
    75  C         -0.00564000       0.51731850       0.80718000
    76  C          0.00564000       0.01731850       0.69282000
    77  H          0.09404000       0.48134150       0.13902000
    78  H          0.90596000       0.98134150       0.36098000
    79  H          0.90596000       0.51865850       0.86098000
    80  H          0.09404000       0.01865850       0.63902000
    81  C          0.09114000       0.52782000       0.28322000
    82  C          0.90886000       0.02782000       0.21678000
    83  C          0.90886000       0.47218000       0.71678000
    84  C          0.09114000       0.97218000       0.78322000
    85  H          0.23564000       0.55772000       0.28952000
    86  H          0.76436000       0.05772000       0.21048000
    87  H          0.76436000       0.44228000       0.71048000
    88  H          0.23564000       0.94228000       0.78952000
    89  C          0.96486000       0.52902000       0.36342000
    90  C          0.03514000       0.02902000       0.13658000
    91  C          0.03514000       0.47098000       0.63658000
    92  C          0.96486000       0.97098000       0.86342000
    93  H          0.02434000       0.55932000       0.42422000
    94  H         -0.02434000       0.05932000       0.07578000
    95  H         -0.02434000       0.44068000       0.57578000
    96  H          0.02434000       0.94068000       0.92422000
    97  C          0.74856000       0.48522000       0.35472000
    98  C          0.25144000       0.98522000       0.14528000
    99  C          0.25144000       0.51478000       0.64528000
   100  C          0.74856000       0.01478000       0.85472000
   101  H          0.66296000       0.48522000       0.40942000
   102  H          0.33704000       0.98522000       0.09058000
   103  H          0.33704000       0.51478000       0.59058000
   104  H          0.66296000       0.01478000       0.90942000
   105  C          0.66316000       0.44182000       0.26392000
   106  C          0.33684000       0.94182000       0.23608000
   107  C          0.33684000       0.55818000       0.73608000
   108  C          0.66316000       0.05818000       0.76392000
   109  H          0.51686000       0.41332000       0.25722000
   110  H          0.48314000       0.91332000       0.24278000
   111  H          0.48314000       0.58668000       0.74278000
   112  H          0.51686000       0.08668000       0.75722000
