data_DUDZIL
_symmetry_space_group_name_H-M    'P1'
_symmetry_Int_Tables_number       1
loop_
_symmetry_equiv_pos_site_id
_symmetry_equiv_pos_as_xyz
1 x,y,z
_cell_length_a                   7.8513
_cell_length_b                   12.6867
_cell_length_c                   11.12111
_cell_angle_alpha                90.0
_cell_angle_beta                 90.0
_cell_angle_gamma                95.586
loop_
_atom_site_label
_atom_site_type_symbol
_atom_site_fract_x
_atom_site_fract_y
_atom_site_fract_z
     1  C          0.15202000       0.13411000       0.06522000
     2  C          0.84798000       0.36589000       0.56522000
     3  C          0.84798000       0.86589000       0.93478000
     4  C          0.15202000       0.63411000       0.43478000
     5  C          0.16062000       0.03081000       0.11072000
     6  C          0.83938000       0.46919000       0.61072000
     7  C          0.83938000       0.96919000       0.88928000
     8  C          0.16062000       0.53081000       0.38928000
     9  C          0.06622000      -0.00101000       0.21252000
    10  C          0.93378000       0.50101000       0.71252000
    11  C          0.93378000       0.00101000       0.78748000
    12  C          0.06622000       0.49899000       0.28748000
    13  C          0.96728000       0.06731000       0.26942000
    14  C          0.03272000       0.43269000       0.76942000
    15  C          0.03272000       0.93269000       0.73058000
    16  C          0.96728000       0.56731000       0.23058000
    17  C          0.96337000       0.17062000       0.22912000
    18  C          0.03663000       0.32938000       0.72912000
    19  C          0.03663000       0.82938000       0.77088000
    20  C          0.96337000       0.67062000       0.27088000
    21  C          0.05532000       0.20371000       0.12932000
    22  C          0.94468000       0.29629000       0.62932000
    23  C          0.94468000       0.79629000       0.87068000
    24  C          0.05532000       0.70371000       0.37068000
    25  N          0.23462000       0.16912000       0.96478000
    26  N          0.76538000       0.33088000       0.46478000
    27  N          0.76538000       0.83088000       0.03522000
    28  N          0.23462000       0.66912000       0.53522000
    29  N          0.86658000       0.02961000       0.37192000
    30  N          0.13342000       0.47039000       0.87192000
    31  N          0.13342000       0.97039000       0.62808000
    32  N          0.86658000       0.52961000       0.12808000
    33  O          0.78028000       0.09161000       0.42402000
    34  O          0.21972000       0.40839000       0.92402000
    35  O          0.21972000       0.90839000       0.57598000
    36  O          0.78028000       0.59161000       0.07598000
    37  O          0.86648000       0.93759000       0.40342000
    38  O          0.13352000       0.56241000       0.90342000
    39  O          0.13352000       0.06241000       0.59658000
    40  O          0.86648000       0.43759000       0.09658000
    41  C          0.26682000       0.95659000       0.05142000
    42  C          0.73318000       0.54341000       0.55142000
    43  C          0.73318000       0.04341000       0.94858000
    44  C          0.26682000       0.45659000       0.44858000
    45  O          0.30872000       0.96639000       0.94719000
    46  O          0.69128000       0.53361000       0.44719000
    47  O          0.69128000       0.03361000       0.05281000
    48  O          0.30872000       0.46639000       0.55281000
    49  C          0.32862000       0.86879000       0.12402000
    50  C          0.67138000       0.63121000       0.62402000
    51  C          0.67138000       0.13121000       0.87598000
    52  C          0.32862000       0.36879000       0.37598000
    53  C          0.31982000       0.76808000       0.07542000
    54  C          0.68018000       0.73192000       0.57542000
    55  C          0.68018000       0.23192000       0.92458000
    56  C          0.31982000       0.26808000       0.42458000
    57  C          0.38963000       0.68838000       0.13642000
    58  C          0.61037000       0.81162000       0.63642000
    59  C          0.61037000       0.31162000       0.86358000
    60  C          0.38963000       0.18838000       0.36358000
    61  C          0.47113000       0.70908000       0.24492000
    62  C          0.52887000       0.79092000       0.74492000
    63  C          0.52887000       0.29092000       0.75508000
    64  C          0.47113000       0.20908000       0.25508000
    65  C          0.48073000       0.80918000       0.29382000
    66  C          0.51927000       0.69082000       0.79382000
    67  C          0.51927000       0.19082000       0.70618000
    68  C          0.48073000       0.30918000       0.20618000
    69  C          0.40613000       0.88888000       0.23432000
    70  C          0.59387000       0.61112000       0.73432000
    71  C          0.59387000       0.11112000       0.76568000
    72  C          0.40613000       0.38888000       0.26568000
    73  H          0.07430000       0.92780000       0.23920000
    74  H          0.92570000       0.57220000       0.73920000
    75  H          0.92570000       0.07220000       0.76080000
    76  H          0.07430000       0.42780000       0.26080000
    77  H          0.89070000       0.21820000       0.27320000
    78  H          0.10930000       0.28180000       0.77320000
    79  H          0.10930000       0.78180000       0.72680000
    80  H          0.89070000       0.71820000       0.22680000
    81  H          0.06640000       0.27930000       0.09930000
    82  H          0.93360000       0.22070000       0.59930000
    83  H          0.93360000       0.72070000       0.90070000
    84  H          0.06640000       0.77930000       0.40070000
    85  H          0.23730000       0.24030000       0.95270000
    86  H          0.76270000       0.25970000       0.45270000
    87  H          0.76270000       0.75970000       0.04730000
    88  H          0.23730000       0.74030000       0.54730000
    89  H          0.31740000       0.12430000       0.92570000
    90  H          0.68260000       0.37570000       0.42570000
    91  H          0.68260000       0.87570000       0.07430000
    92  H          0.31740000       0.62430000       0.57430000
    93  H          0.27330000       0.75880000      -0.00430000
    94  H          0.72670000       0.74120000       0.49570000
    95  H          0.72670000       0.24120000       0.00430000
    96  H          0.27330000       0.25880000       0.50430000
    97  H          0.38640000       0.61470000       0.10420000
    98  H          0.61360000       0.88530000       0.60420000
    99  H          0.61360000       0.38530000       0.89580000
   100  H          0.38640000       0.11470000       0.39580000
   101  H          0.53330000       0.65280000       0.28530000
   102  H          0.46670000       0.84720000       0.78530000
   103  H          0.46670000       0.34720000       0.71470000
   104  H          0.53330000       0.15280000       0.21470000
   105  H          0.54740000       0.82480000       0.36830000
   106  H          0.45260000       0.67520000       0.86830000
   107  H          0.45260000       0.17520000       0.63170000
   108  H          0.54740000       0.32480000       0.13170000
   109  H          0.40930000       0.95680000       0.26930000
   110  H          0.59070000       0.54320000       0.76930000
   111  H          0.59070000       0.04320000       0.73070000
   112  H          0.40930000       0.45680000       0.23070000
