data_DUDZIL03
_symmetry_space_group_name_H-M    'P1'
_symmetry_Int_Tables_number       1
loop_
_symmetry_equiv_pos_site_id
_symmetry_equiv_pos_as_xyz
1 x,y,z
_cell_length_a                   7.72369
_cell_length_b                   19.298315
_cell_length_c                   7.65767
_cell_angle_alpha                90.0
_cell_angle_beta                 95.9401
_cell_angle_gamma                90.0
loop_
_atom_site_label
_atom_site_type_symbol
_atom_site_fract_x
_atom_site_fract_y
_atom_site_fract_z
     1  O          0.88428000       0.47754900       0.66453000
     2  O          0.11572000       0.97754900       0.83547000
     3  O          0.11572000       0.52245100       0.33547000
     4  O          0.88428000       0.02245100       0.16453000
     5  O          0.32943000       0.16923900       0.91463000
     6  O          0.67057000       0.66923900       0.58537000
     7  O          0.67057000       0.83076100       0.08537000
     8  O          0.32943000       0.33076100       0.41463000
     9  O          0.45273000       0.26772100       0.95534000
    10  O          0.54727000       0.76772100       0.54466000
    11  O          0.54727000       0.73227900       0.04466000
    12  O          0.45273000       0.23227900       0.45534000
    13  N          0.32693000       0.23251110       0.90063000
    14  N          0.67307000       0.73251110       0.59937000
    15  N          0.67307000       0.76748890       0.09937000
    16  N          0.32693000       0.26748890       0.40063000
    17  N          0.72997000       0.35757130       0.58253000
    18  N          0.27003000       0.85757130       0.91747000
    19  N          0.27003000       0.64242870       0.41747000
    20  N          0.72997000       0.14242870       0.08253000
    21  H          0.64320000       0.33150000       0.54700000
    22  H          0.35680000       0.83150000       0.95300000
    23  H          0.35680000       0.66850000       0.45300000
    24  H          0.64320000       0.16850000       0.04700000
    25  H          0.72320000       0.40160000       0.56660000
    26  H          0.27680000       0.90160000       0.93340000
    27  H          0.27680000       0.59840000       0.43340000
    28  H          0.72320000       0.09840000       0.06660000
    29  C          0.02273000       0.37005120       0.72273000
    30  C          0.97727000       0.87005120       0.77727000
    31  C          0.97727000       0.62994880       0.27727000
    32  C          0.02273000       0.12994880       0.22273000
    33  C          0.16913000       0.33617110       0.80183000
    34  C          0.83087000       0.83617110       0.69817000
    35  C          0.83087000       0.66382890       0.19817000
    36  C          0.16913000       0.16382890       0.30183000
    37  H          0.26630000       0.36200000       0.84360000
    38  H          0.73370000       0.86200000       0.65640000
    39  H          0.73370000       0.63800000       0.15640000
    40  H          0.26630000       0.13800000       0.34360000
    41  C          0.17303000       0.26550120       0.81973000
    42  C          0.82697000       0.76550120       0.68027000
    43  C          0.82697000       0.73449880       0.18027000
    44  C          0.17303000       0.23449880       0.31973000
    45  C          0.02814000       0.22565140       0.76164000
    46  C          0.97186000       0.72565140       0.73836000
    47  C          0.97186000       0.77434860       0.23836000
    48  C          0.02814000       0.27434860       0.26164000
    49  H          0.03130000       0.17770000       0.77430000
    50  H          0.96870000       0.67770000       0.72570000
    51  H          0.96870000       0.82230000       0.22570000
    52  H          0.03130000       0.32230000       0.27430000
    53  C          0.87477000       0.32980130       0.66193000
    54  C          0.12523000       0.82980130       0.83807000
    55  C          0.12523000       0.67019870       0.33807000
    56  C          0.87477000       0.17019870       0.16193000
    57  C          0.01923000       0.44666130       0.71093000
    58  C         -0.01923000       0.94666130       0.78907000
    59  C         -0.01923000       0.55333870       0.28907000
    60  C          0.01923000       0.05333870       0.21093000
    61  C          0.17773000       0.48814110       0.76183000
    62  C          0.82227000       0.98814110       0.73817000
    63  C          0.82227000       0.51185890       0.23817000
    64  C          0.17773000       0.01185890       0.26183000
    65  C          0.88286000       0.25714140       0.68654000
    66  C          0.11714000       0.75714140       0.81346000
    67  C          0.11714000       0.74285860       0.31346000
    68  C          0.88286000       0.24285860       0.18654000
    69  H          0.78570000       0.23040000       0.65000000
    70  H          0.21430000       0.73040000       0.85000000
    71  H          0.21430000       0.76960000       0.35000000
    72  H          0.78570000       0.26960000       0.15000000
    73  C          0.16344000       0.54465120       0.87183000
    74  C          0.83656000       0.04465120       0.62817000
    75  C          0.83656000       0.45534880       0.12817000
    76  C          0.16344000       0.95534880       0.37183000
    77  H          0.05730000       0.55430000       0.91380000
    78  H          0.94270000       0.05430000       0.58620000
    79  H          0.94270000       0.44570000       0.08620000
    80  H          0.05730000       0.94570000       0.41380000
    81  C          0.45854000       0.57473140       0.85154000
    82  C          0.54146000       0.07473140       0.64846000
    83  C          0.54146000       0.42526860       0.14846000
    84  C          0.45854000       0.92526860       0.35154000
    85  H          0.55240000       0.60410000       0.88100000
    86  H          0.44760000       0.10410000       0.61900000
    87  H          0.44760000       0.39590000       0.11900000
    88  H          0.55240000       0.89590000       0.38100000
    89  C          0.47534000       0.51992130       0.74054000
    90  C          0.52466000       0.01992130       0.75946000
    91  C          0.52466000       0.48007870       0.25946000
    92  C          0.47534000       0.98007870       0.24054000
    93  H          0.58040000       0.51210000       0.69440000
    94  H          0.41960000       0.01210000       0.80560000
    95  H          0.41960000       0.48790000       0.30560000
    96  H          0.58040000       0.98790000       0.19440000
    97  C          0.33573000       0.47637120       0.69773000
    98  C          0.66427000       0.97637120       0.80227000
    99  C          0.66427000       0.52362880       0.30227000
   100  C          0.33573000       0.02362880       0.19773000
   101  H          0.34820000       0.43860000       0.62460000
   102  H          0.65180000       0.93860000       0.87540000
   103  H          0.65180000       0.56140000       0.37540000
   104  H          0.34820000       0.06140000       0.12460000
   105  C          0.30415000       0.58617120       0.91874000
   106  C          0.69585000       0.08617120       0.58126000
   107  C          0.69585000       0.41382880       0.08126000
   108  C          0.30415000       0.91382880       0.41874000
   109  H          0.29440000       0.62250000      -0.00300000
   110  H          0.70560000       0.12250000       0.50300000
   111  H          0.70560000       0.37750000       0.00300000
   112  H          0.29440000       0.87750000       0.49700000
