data_DUSFUV03
_symmetry_space_group_name_H-M    'P1'
_symmetry_Int_Tables_number       1
loop_
_symmetry_equiv_pos_site_id
_symmetry_equiv_pos_as_xyz
1 x,y,z
_cell_length_a                   10.40515
_cell_length_b                   12.14905
_cell_length_c                   11.65955
_cell_angle_alpha                90.0
_cell_angle_beta                 98.7832
_cell_angle_gamma                90.0
loop_
_atom_site_label
_atom_site_type_symbol
_atom_site_fract_x
_atom_site_fract_y
_atom_site_fract_z
     1  Br         0.21787400       0.35691500       0.06005500
     2  Br         0.28212600       0.85691500       0.43994500
     3  Br         0.78212600       0.64308500       0.93994500
     4  Br         0.71787400       0.14308500       0.56005500
     5  S         -0.01229900       0.46202800       0.15964100
     6  S          0.51229900       0.96202800       0.34035900
     7  S          0.01229900       0.53797200       0.84035900
     8  S          0.48770100       0.03797200       0.65964100
     9  O          0.76123000       0.54352000       0.25033000
    10  O          0.73877000       0.04352000       0.24967000
    11  O          0.23877000       0.45648000       0.74967000
    12  O          0.26123000       0.95648000       0.75033000
    13  C          0.65444000       0.37693000       0.28153000
    14  C          0.84556000       0.87693000       0.21847000
    15  C          0.34556000       0.62307000       0.71847000
    16  C          0.15444000       0.12307000       0.78153000
    17  H          0.65738200       0.30062500       0.27631600
    18  H          0.84261800       0.80062500       0.22368400
    19  H          0.34261800       0.69937500       0.72368400
    20  H          0.15738200       0.19937500       0.77631600
    21  C          0.86743000       0.38453000       0.20603000
    22  C          0.63257000       0.88453000       0.29397000
    23  C          0.13257000       0.61547000       0.79397000
    24  C          0.36743000       0.11547000       0.70603000
    25  C          0.44034000       0.37553000       0.35583000
    26  C          0.05966000       0.87553000       0.14417000
    27  C          0.55966000       0.62447000       0.64417000
    28  C          0.94034000       0.12447000       0.85583000
    29  C          0.75994000       0.44173000       0.24733000
    30  C          0.74006000       0.94173000       0.25267000
    31  C          0.24006000       0.55827000       0.75267000
    32  C          0.25994000       0.05827000       0.74733000
    33  C          0.55464000       0.42383000       0.31973000
    34  C          0.94536000       0.92383000       0.18027000
    35  C          0.44536000       0.57617000       0.68027000
    36  C          0.05464000       0.07617000       0.81973000
    37  H          0.55853900       0.50018900       0.32411700
    38  H          0.94146100       0.00018900       0.17588300
    39  H          0.44146100       0.49981100       0.67588300
    40  H          0.05853900      -0.00018900       0.82411700
    41  N          0.10603000       0.24673000       0.46903000
    42  N          0.39397000       0.74673000       0.03097000
    43  N          0.89397000       0.75327000       0.53097000
    44  N          0.60603000       0.25327000       0.96903000
    45  C          0.06644000       0.34713000       0.12673000
    46  C          0.43356000       0.84713000       0.37327000
    47  C          0.93356000       0.65287000       0.87327000
    48  C          0.56644000       0.15287000       0.62673000
    49  C          0.41034000       0.26333000       0.34753000
    50  C          0.08966000       0.76333000       0.15247000
    51  C          0.58966000       0.73667000       0.65247000
    52  C          0.91034000       0.23667000       0.84753000
    53  H          0.46658300       0.21592700       0.31690300
    54  H          0.03341700       0.71592700       0.18309700
    55  H          0.53341700       0.78407300       0.68309700
    56  H          0.96658300       0.28407300       0.81690300
    57  C          0.89154000       0.27513000       0.19484000
    58  C          0.60846000       0.77513000       0.30516000
    59  C          0.10846000       0.72487000       0.80516000
    60  C          0.39154000       0.22487000       0.69484000
    61  H          0.83718200       0.21999100       0.21505500
    62  H          0.66281800       0.71999100       0.28494500
    63  H          0.16281800       0.78000900       0.78494500
    64  H          0.33718200       0.28000900       0.71505500
    65  C          0.35144000       0.44063000       0.40154000
    66  C          0.14856000       0.94063000       0.09846000
    67  C          0.64856000       0.55937000       0.59846000
    68  C          0.85144000       0.05937000       0.90154000
    69  H          0.36669400       0.51600600       0.40727000
    70  H          0.13330600       0.01600600       0.09273000
    71  H          0.63330600       0.48399400       0.59273000
    72  H          0.86669400       0.98399400       0.90727000
    73  C          0.24204000       0.40004000       0.43864000
    74  C          0.25796000       0.90004000       0.06136000
    75  C          0.75796000       0.59996000       0.56136000
    76  C          0.74204000       0.09996000       0.93864000
    77  H          0.18657900       0.44763400       0.46985000
    78  H          0.31342100       0.94763400       0.03015000
    79  H          0.81342100       0.55236600       0.53015000
    80  H          0.68657900       0.05236600       0.96985000
    81  C          0.30184000       0.22133000       0.38274000
    82  C          0.19816000       0.72133000       0.11726000
    83  C          0.69816000       0.77867000       0.61726000
    84  C          0.80184000       0.27867000       0.88274000
    85  H          0.28569700       0.14615500       0.37508900
    86  H          0.21430300       0.64615500       0.12491100
    87  H          0.71430300       0.85384500       0.62491100
    88  H          0.78569700       0.35384500       0.87508900
    89  C          0.21314000       0.28843000       0.43023000
    90  C          0.28686000       0.78843000       0.06977000
    91  C          0.78686000       0.71157000       0.56977000
    92  C          0.71314000       0.21157000       0.93023000
    93  C          0.00624000       0.25413000       0.14984000
    94  C          0.49376000       0.75413000       0.35016000
    95  C         -0.00624000       0.74587000       0.85016000
    96  C          0.50624000       0.24587000       0.64984000
    97  H          0.03708600       0.18396200       0.13749200
    98  H          0.46291400       0.68396200       0.36250800
    99  H          0.96291400       0.81603800       0.86250800
   100  H          0.53708600       0.31603800       0.63749200
   101  C          0.01715000       0.31784000       0.52065000
   102  C          0.48285000       0.81784000       0.97935000
   103  C          0.98285000       0.68216000       0.47935000
   104  C          0.51715000       0.18216000       0.02065000
   105  H          0.06565400       0.36195100       0.58043500
   106  H          0.43434600       0.86195100       0.91956500
   107  H          0.93434600       0.63804900       0.41956500
   108  H          0.56565400       0.13804900       0.08043500
   109  H          0.95564900       0.27336100       0.55341700
   110  H          0.54435100       0.77336100       0.94658300
   111  H          0.04435100       0.72663900       0.44658300
   112  H          0.45564900       0.22663900       0.05341700
   113  H          0.97155200       0.36490900       0.46187300
   114  H          0.52844800       0.86490900       0.03812700
   115  H          0.02844800       0.63509100       0.53812700
   116  H          0.47155200       0.13509100       0.96187300
   117  C          0.07105000       0.13154000       0.45455000
   118  C          0.42895000       0.63154000       0.04545000
   119  C          0.92895000       0.86846000       0.54545000
   120  C          0.57105000       0.36846000       0.95455000
   121  H          0.07243000       0.11011200       0.37544900
   122  H          0.42757000       0.61011200       0.12455100
   123  H          0.92757000       0.88988800       0.62455100
   124  H          0.57243000       0.38988800       0.87544900
   125  H         -0.01476800       0.12058700       0.47331500
   126  H          0.51476800       0.62058700       0.02668500
   127  H          0.01476800       0.87941300       0.52668500
   128  H          0.48523200       0.37941300       0.97331500
   129  H          0.13202700       0.08764900       0.50509100
   130  H          0.36797300       0.58764900      -0.00509100
   131  H          0.86797300       0.91235100       0.49490900
   132  H          0.63202700       0.41235100       0.00509100
