data_DUSFUV01
_symmetry_space_group_name_H-M    'P1'
_symmetry_Int_Tables_number       1
loop_
_symmetry_equiv_pos_site_id
_symmetry_equiv_pos_as_xyz
1 x,y,z
_cell_length_a                   11.06526
_cell_length_b                   10.92674
_cell_length_c                   24.054912
_cell_angle_alpha                90.0
_cell_angle_beta                 90.0
_cell_angle_gamma                90.0
loop_
_atom_site_label
_atom_site_type_symbol
_atom_site_fract_x
_atom_site_fract_y
_atom_site_fract_z
     1  Br         0.67762500       0.92070600       0.68476200
     2  Br         0.82237500       0.07929400       0.18476200
     3  Br         0.32237500       0.42070600       0.81523800
     4  Br         0.17762500       0.57929400       0.31523800
     5  Br         0.32237500       0.07929400       0.31523800
     6  Br         0.17762500       0.92070600       0.81523800
     7  Br         0.67762500       0.57929400       0.18476200
     8  Br         0.82237500       0.42070600       0.68476200
     9  S          0.81303100       0.10662900       0.60940500
    10  S          0.68696900       0.89337100       0.10940500
    11  S          0.18696900       0.60662900       0.89059500
    12  S          0.31303100       0.39337100       0.39059500
    13  S          0.18696900       0.89337100       0.39059500
    14  S          0.31303100       0.10662900       0.89059500
    15  S          0.81303100       0.39337100       0.10940500
    16  S          0.68696900       0.60662900       0.60940500
    17  O          0.91923000       0.29483000       0.53821120
    18  O          0.58077000       0.70517000       0.03821120
    19  O          0.08077000       0.79483000       0.96178880
    20  O          0.41923000       0.20517000       0.46178880
    21  O          0.08077000       0.70517000       0.46178880
    22  O          0.41923000       0.29483000       0.96178880
    23  O          0.91923000       0.20517000       0.03821120
    24  O          0.58077000       0.79483000       0.53821120
    25  N          0.59973000       0.75943000       0.29549150
    26  N          0.90027000       0.24057000       0.79549150
    27  N          0.40027000       0.25943000       0.20450850
    28  N          0.09973000       0.74057000       0.70450850
    29  N          0.40027000       0.24057000       0.70450850
    30  N          0.09973000       0.75943000       0.20450850
    31  N          0.59973000       0.74057000       0.79549150
    32  N          0.90027000       0.25943000       0.29549150
    33  C          0.74374000       0.53633000       0.42252170
    34  C          0.75626000       0.46367000       0.92252170
    35  C          0.25626000       0.03633000       0.07747830
    36  C          0.24374000       0.96367000       0.57747830
    37  C          0.25626000       0.46367000       0.57747830
    38  C          0.24374000       0.53633000       0.07747830
    39  C          0.74374000       0.96367000       0.92252170
    40  C          0.75626000       0.03633000       0.42252170
    41  C          0.73744000       0.20213000       0.56394150
    42  C          0.76256000       0.79787000       0.06394150
    43  C          0.26256000       0.70213000       0.93605850
    44  C          0.23744000       0.29787000       0.43605850
    45  C          0.26256000       0.79787000       0.43605850
    46  C          0.23744000       0.20213000       0.93605850
    47  C          0.73744000       0.29787000       0.06394150
    48  C          0.76256000       0.70213000       0.56394150
    49  C          0.81024000       0.28924000       0.53177160
    50  C          0.68976000       0.71076000       0.03177160
    51  C          0.18976000       0.78924000       0.96822840
    52  C          0.31024000       0.21076000       0.46822840
    53  C          0.18976000       0.71076000       0.46822840
    54  C          0.31024000       0.28924000       0.96822840
    55  C          0.81024000       0.21076000       0.03177160
    56  C          0.68976000       0.78924000       0.53177160
    57  C          0.79574000       0.45863000       0.46481160
    58  C          0.70426000       0.54137000       0.96481160
    59  C          0.20426000       0.95863000       0.03518840
    60  C          0.29574000       0.04137000       0.53518840
    61  C          0.20426000       0.54137000       0.53518840
    62  C          0.29574000       0.45863000       0.03518840
    63  C          0.79574000       0.04137000       0.96481160
    64  C          0.70426000       0.95863000       0.46481160
    65  H          0.87545400       0.47536100       0.47428400
    66  H          0.62454600       0.52463900       0.97428400
    67  H          0.12454600       0.97536100       0.02571600
    68  H          0.37545400       0.02463900       0.52571600
    69  H          0.12454600       0.52463900       0.52571600
    70  H          0.37545400       0.47536100       0.02571600
    71  H          0.87545400       0.02463900       0.97428400
    72  H          0.62454600       0.97536100       0.47428400
    73  C          0.64704000       0.68734000       0.33716170
    74  C          0.85296000       0.31266000       0.83716170
    75  C          0.35296000       0.18734000       0.16283830
    76  C          0.14704000       0.81266000       0.66283830
    77  C          0.35296000       0.31266000       0.66283830
    78  C          0.14704000       0.68734000       0.16283830
    79  C          0.64704000       0.81266000       0.83716170
    80  C          0.85296000       0.18734000       0.33716170
    81  C          0.76384000       0.70433000       0.35759170
    82  C          0.73616000       0.29567000       0.85759170
    83  C          0.23616000       0.20433000       0.14240830
    84  C          0.26384000       0.79567000       0.64240830
    85  C          0.23616000       0.29567000       0.64240830
    86  C          0.26384000       0.70433000       0.14240830
    87  C          0.76384000       0.79567000       0.85759170
    88  C          0.73616000       0.20433000       0.35759170
    89  H          0.81153700       0.76653600       0.34303700
    90  H          0.68846300       0.23346400       0.84303700
    91  H          0.18846300       0.26653600       0.15696300
    92  H          0.31153700       0.73346400       0.65696300
    93  H          0.18846300       0.23346400       0.65696300
    94  H          0.31153700       0.76653600       0.15696300
    95  H          0.81153700       0.73346400       0.84303700
    96  H          0.68846300       0.26653600       0.34303700
    97  C          0.80944000       0.63063000       0.39882170
    98  C          0.69056000       0.36937000       0.89882170
    99  C          0.19056000       0.13063000       0.10117830
   100  C          0.30944000       0.86937000       0.60117830
   101  C          0.19056000       0.36937000       0.60117830
   102  C          0.30944000       0.63063000       0.10117830
   103  C          0.80944000       0.86937000       0.89882170
   104  C          0.69056000       0.13063000       0.39882170
   105  H          0.88775500       0.64470100       0.41132000
   106  H          0.61224500       0.35529900       0.91132000
   107  H          0.11224500       0.14470100       0.08868000
   108  H          0.38775500       0.85529900       0.58868000
   109  H          0.11224500       0.35529900       0.58868000
   110  H          0.38775500       0.64470100       0.08868000
   111  H          0.88775500       0.85529900       0.91132000
   112  H          0.61224500       0.14470100       0.41132000
   113  C          0.74404000       0.36604000       0.49205160
   114  C          0.75596000       0.63396000       0.99205160
   115  C          0.25596000       0.86604000       0.00794840
   116  C          0.24404000       0.13396000       0.50794840
   117  C          0.25596000       0.63396000       0.50794840
   118  C          0.24404000       0.36604000       0.00794840
   119  C          0.74404000       0.13396000       0.99205160
   120  C          0.75596000       0.86604000       0.49205160
   121  H          0.66277900       0.34947800       0.48559900
   122  H          0.83722100       0.65052200       0.98559900
   123  H          0.33722100       0.84947800       0.01440100
   124  H          0.16277900       0.15052200       0.51440100
   125  H          0.33722100       0.65052200       0.51440100
   126  H          0.16277900       0.34947800       0.01440100
   127  H          0.66277900       0.15052200       0.98559900
   128  H          0.83722100       0.84947800       0.48559900
   129  C          0.62644000       0.52004000       0.40195180
   130  C          0.87356000       0.47996000       0.90195180
   131  C          0.37356000       0.02004000       0.09804820
   132  C          0.12644000       0.97996000       0.59804820
   133  C          0.37356000       0.47996000       0.59804820
   134  C          0.12644000       0.52004000       0.09804820
   135  C          0.62644000       0.97996000       0.90195180
   136  C          0.87356000       0.02004000       0.40195180
   137  H          0.57904200       0.45752400       0.41662800
   138  H          0.92095800       0.54247600       0.91662800
   139  H          0.42095800       0.95752400       0.08337200
   140  H          0.07904200       0.04247600       0.58337200
   141  H          0.42095800       0.54247600       0.58337200
   142  H          0.07904200       0.45752400       0.08337200
   143  H          0.57904200       0.04247600       0.91662800
   144  H          0.92095800       0.95752400       0.41662800
   145  C          0.68094000       0.04223000       0.63024160
   146  C          0.81906000       0.95777000       0.13024160
   147  C          0.31906000       0.54223000       0.86975840
   148  C          0.18094000       0.45777000       0.36975840
   149  C          0.31906000       0.95777000       0.36975840
   150  C          0.18094000       0.04223000       0.86975840
   151  C          0.68094000       0.45777000       0.13024160
   152  C          0.81906000       0.54223000       0.63024160
   153  C          0.61674000       0.18154000       0.56629170
   154  C          0.88326000       0.81846000       0.06629170
   155  C          0.38326000       0.68154000       0.93370830
   156  C          0.11674000       0.31846000       0.43370830
   157  C          0.38326000       0.81846000       0.43370830
   158  C          0.11674000       0.18154000       0.93370830
   159  C          0.61674000       0.31846000       0.06629170
   160  C          0.88326000       0.68154000       0.56629170
   161  H          0.56094700       0.22416900       0.54480100
   162  H          0.93905300       0.77583100       0.04480100
   163  H          0.43905300       0.72416900       0.95519900
   164  H          0.06094700       0.27583100       0.45519900
   165  H          0.43905300       0.77583100       0.45519900
   166  H          0.06094700       0.22416900       0.95519900
   167  H          0.56094700       0.27583100       0.04480100
   168  H          0.93905300       0.72416900       0.54480100
   169  C          0.57894000       0.59274000       0.36093190
   170  C          0.92106000       0.40726000       0.86093190
   171  C          0.42106000       0.09274000       0.13906810
   172  C          0.07894000       0.90726000       0.63906810
   173  C          0.42106000       0.40726000       0.63906810
   174  C          0.07894000       0.59274000       0.13906810
   175  C          0.57894000       0.90726000       0.86093190
   176  C          0.92106000       0.09274000       0.36093190
   177  H          0.50029600       0.57905200       0.34871300
   178  H         -0.00029600       0.42094800       0.84871300
   179  H          0.49970400       0.07905200       0.15128700
   180  H          0.00029600       0.92094800       0.65128700
   181  H          0.49970400       0.42094800       0.65128700
   182  H          0.00029600       0.57905200       0.15128700
   183  H          0.50029600       0.92094800       0.84871300
   184  H         -0.00029600       0.07905200       0.34871300
   185  C          0.58354000       0.08914000       0.60445170
   186  C          0.91646000       0.91086000       0.10445170
   187  C          0.41646000       0.58914000       0.89554830
   188  C          0.08354000       0.41086000       0.39554830
   189  C          0.41646000       0.91086000       0.39554830
   190  C          0.08354000       0.08914000       0.89554830
   191  C          0.58354000       0.41086000       0.10445170
   192  C          0.91646000       0.58914000       0.60445170
   193  H          0.50448300       0.06391000       0.61091300
   194  H         -0.00448300       0.93609000       0.11091300
   195  H          0.49551700       0.56391000       0.88908700
   196  H          0.00448300       0.43609000       0.38908700
   197  H          0.49551700       0.93609000       0.38908700
   198  H          0.00448300       0.06391000       0.88908700
   199  H          0.50448300       0.43609000       0.11091300
   200  H         -0.00448300       0.56391000       0.61091300
   201  C          0.47824000       0.74014000       0.27505180
   202  C          0.02176000       0.25986000       0.77505180
   203  C          0.52176000       0.24014000       0.22494820
   204  C          0.97824000       0.75986000       0.72494820
   205  C          0.52176000       0.25986000       0.72494820
   206  C          0.97824000       0.74014000       0.22494820
   207  C          0.47824000       0.75986000       0.77505180
   208  C          0.02176000       0.24014000       0.27505180
   209  H          0.47022900       0.65734500       0.26210800
   210  H          0.02977100       0.34265500       0.76210800
   211  H          0.52977100       0.15734500       0.23789200
   212  H          0.97022900       0.84265500       0.73789200
   213  H          0.52977100       0.34265500       0.73789200
   214  H          0.97022900       0.65734500       0.23789200
   215  H          0.47022900       0.84265500       0.76210800
   216  H          0.02977100       0.15734500       0.26210800
   217  H          0.46241400       0.79554500       0.24497800
   218  H          0.03758600       0.20445500       0.74497800
   219  H          0.53758600       0.29554500       0.25502200
   220  H          0.96241400       0.70445500       0.75502200
   221  H          0.53758600       0.20445500       0.75502200
   222  H          0.96241400       0.79554500       0.25502200
   223  H          0.46241400       0.70445500       0.74497800
   224  H          0.03758600       0.29554500       0.24497800
   225  H          0.42144900       0.75445900       0.30450800
   226  H          0.07855100       0.24554100       0.80450800
   227  H          0.57855100       0.25445900       0.19549200
   228  H          0.92144900       0.74554100       0.69549200
   229  H          0.57855100       0.24554100       0.69549200
   230  H          0.92144900       0.75445900       0.19549200
   231  H          0.42144900       0.74554100       0.80450800
   232  H          0.07855100       0.25445900       0.30450800
   233  C          0.66124000       0.86834000       0.27750180
   234  C          0.83876000       0.13166000       0.77750180
   235  C          0.33876000       0.36834000       0.22249820
   236  C          0.16124000       0.63166000       0.72249820
   237  C          0.33876000       0.13166000       0.72249820
   238  C          0.16124000       0.86834000       0.22249820
   239  C          0.66124000       0.63166000       0.77750180
   240  C          0.83876000       0.36834000       0.27750180
   241  H          0.67568500       0.92043900       0.30892400
   242  H          0.82431500       0.07956100       0.80892400
   243  H          0.32431500       0.42043900       0.19107600
   244  H          0.17568500       0.57956100       0.69107600
   245  H          0.32431500       0.07956100       0.69107600
   246  H          0.17568500       0.92043900       0.19107600
   247  H          0.67568500       0.57956100       0.80892400
   248  H          0.82431500       0.42043900       0.30892400
   249  H          0.61202800       0.91080400       0.25086700
   250  H          0.88797200       0.08919600       0.75086700
   251  H          0.38797200       0.41080400       0.24913300
   252  H          0.11202800       0.58919600       0.74913300
   253  H          0.38797200       0.08919600       0.74913300
   254  H          0.11202800       0.91080400       0.24913300
   255  H          0.61202800       0.58919600       0.75086700
   256  H          0.88797200       0.41080400       0.25086700
   257  H          0.73683600       0.84644700       0.26069200
   258  H          0.76316400       0.15355300       0.76069200
   259  H          0.26316400       0.34644700       0.23930800
   260  H          0.23683600       0.65355300       0.73930800
   261  H          0.26316400       0.15355300       0.73930800
   262  H          0.23683600       0.84644700       0.23930800
   263  H          0.73683600       0.65355300       0.76069200
   264  H          0.76316400       0.34644700       0.26069200
