data_DUSFUV
_symmetry_space_group_name_H-M    'P1'
_symmetry_Int_Tables_number       1
loop_
_symmetry_equiv_pos_site_id
_symmetry_equiv_pos_as_xyz
1 x,y,z
_cell_length_a                   7.50872
_cell_length_b                   17.70264
_cell_length_c                   10.81963
_cell_angle_alpha                90.0
_cell_angle_beta                 102.2583
_cell_angle_gamma                90.0
loop_
_atom_site_label
_atom_site_type_symbol
_atom_site_fract_x
_atom_site_fract_y
_atom_site_fract_z
     1  S          0.59099900       0.90916300       0.87301500
     2  S          0.90900100       0.40916300       0.62698500
     3  S          0.40900100       0.09083700       0.12698500
     4  S          0.09099900       0.59083700       0.37301500
     5  C          0.52453000       0.82621130       0.79212000
     6  C          0.97547000       0.32621130       0.70788000
     7  C          0.47547000       0.17378870       0.20788000
     8  C          0.02453000       0.67378870       0.29212000
     9  C          0.44663000       0.84005140       0.66772000
    10  C          0.05337000       0.34005140       0.83228000
    11  C          0.55337000       0.15994860       0.33228000
    12  C          0.94663000       0.65994860       0.16772000
    13  H          0.40141100       0.80229700       0.60971400
    14  H          0.09858900       0.30229700       0.89028600
    15  H          0.59858900       0.19770300       0.39028600
    16  H          0.90141100       0.69770300       0.10971400
    17  C          0.44214000       0.91771160       0.63682000
    18  C          0.05786000       0.41771160       0.86318000
    19  C          0.55786000       0.08228840       0.36318000
    20  C          0.94214000       0.58228840       0.13682000
    21  H          0.39603700       0.93686600       0.55628600
    22  H          0.10396300       0.43686600       0.94371400
    23  H          0.60396300       0.06313400       0.44371400
    24  H          0.89603700       0.56313400       0.05628600
    25  Br         0.52786400       0.06597200       0.74286300
    26  Br         0.97213600       0.56597200       0.75713700
    27  Br         0.47213600       0.93402800       0.25713700
    28  Br         0.02786400       0.43402800       0.24286300
    29  C          0.51333000       0.96081150       0.73882000
    30  C         -0.01333000       0.46081150       0.76118000
    31  C          0.48667000       0.03918850       0.26118000
    32  C          0.01333000       0.53918850       0.23882000
    33  O          0.63713000       0.75712110       0.97578160
    34  O          0.86287000       0.25712110       0.52421840
    35  O          0.36287000       0.24287890       0.02421840
    36  O          0.13713000       0.74287890       0.47578160
    37  C          0.55833000       0.75496140       0.86342000
    38  C          0.94167000       0.25496140       0.63658000
    39  C          0.44167000       0.24503860       0.13658000
    40  C          0.05833000       0.74503860       0.36342000
    41  C          0.49783000       0.68488140       0.79532000
    42  C          0.00217000       0.18488140       0.70468000
    43  C          0.50217000       0.31511860       0.20468000
    44  C         -0.00217000       0.81511860       0.29532000
    45  H          0.42808300       0.68733800       0.71336200
    46  H          0.07191700       0.18733800       0.78663800
    47  H          0.57191700       0.31266200       0.28663800
    48  H          0.92808300       0.81266200       0.21336200
    49  C          0.54133000       0.61713140       0.84922000
    50  C          0.95867000       0.11713140       0.65078000
    51  C          0.45867000       0.38286860       0.15078000
    52  C          0.04133000       0.88286860       0.34922000
    53  H          0.60411900       0.61787700       0.93312200
    54  H          0.89588100       0.11787700       0.56687800
    55  H          0.39588100       0.38212300       0.06687800
    56  H          0.10411900       0.88212300       0.43312200
    57  C          0.50293000       0.54332150       0.79322000
    58  C         -0.00293000       0.04332150       0.70678000
    59  C          0.49707000       0.45667850       0.20678000
    60  C          0.00293000       0.95667850       0.29322000
    61  C          0.56603000       0.47812140       0.86232000
    62  C          0.93397000       0.97812140       0.63768000
    63  C          0.43397000       0.52187860       0.13768000
    64  C          0.06603000       0.02187860       0.36232000
    65  H          0.63129100       0.48340800       0.94510400
    66  H          0.86870900       0.98340800       0.55489600
    67  H          0.36870900       0.51659200       0.05489600
    68  H          0.13129100       0.01659200       0.44510400
    69  C          0.53524000       0.40665150       0.81263000
    70  C          0.96476000       0.90665150       0.68737000
    71  C          0.46476000       0.59334850       0.18737000
    72  C          0.03524000       0.09334850       0.31263000
    73  H          0.57898000       0.36502300       0.86227100
    74  H          0.92102000       0.86502300       0.63772900
    75  H          0.42102000       0.63497700       0.13772900
    76  H          0.07898000       0.13497700       0.36227100
    77  C          0.43833000       0.39568140       0.68752000
    78  C          0.06167000       0.89568140       0.81248000
    79  C          0.56167000       0.60431860       0.31248000
    80  C          0.93833000       0.10431860       0.18752000
    81  C          0.37564000       0.46149140       0.61662000
    82  C          0.12436000       0.96149140       0.88338000
    83  C          0.62436000       0.53850860       0.38338000
    84  C          0.87564000       0.03850860       0.11662000
    85  H          0.31223200       0.45654500       0.53322400
    86  H          0.18776800       0.95654500       0.96677600
    87  H          0.68776800       0.54345500       0.46677600
    88  H          0.81223200       0.04345500       0.03322400
    89  C          0.40663000       0.53202140       0.66822000
    90  C          0.09337000       0.03202140       0.83178000
    91  C          0.59337000       0.46797860       0.33178000
    92  C          0.90663000       0.96797860       0.16822000
    93  H          0.36248500       0.57382800       0.61910800
    94  H          0.13751500       0.07382800       0.88089200
    95  H          0.63751500       0.42617200       0.38089200
    96  H          0.86248500       0.92617200       0.11910800
    97  N          0.40643000       0.32522120       0.63712000
    98  N          0.09357000       0.82522120       0.86288000
    99  N          0.59357000       0.67477880       0.36288000
   100  N          0.90643000       0.17477880       0.13712000
   101  C          0.46835000       0.25896160       0.71103000
   102  C          0.03165000       0.75896160       0.78897000
   103  C          0.53165000       0.74103840       0.28897000
   104  C          0.96835000       0.24103840       0.21103000
   105  H          0.59908000       0.25888700       0.73330500
   106  H          0.90092000       0.75888700       0.76669500
   107  H          0.40092000       0.74111300       0.26669500
   108  H          0.09908000       0.24111300       0.23330500
   109  H          0.42669400       0.21458600       0.66237900
   110  H          0.07330600       0.71458600       0.83762100
   111  H          0.57330600       0.78541400       0.33762100
   112  H          0.92669400       0.28541400       0.16237900
   113  H          0.42050300       0.25922500       0.78653300
   114  H          0.07949700       0.75922500       0.71346700
   115  H          0.57949700       0.74077500       0.21346700
   116  H          0.92050300       0.24077500       0.28653300
   117  C          0.31625000       0.31517160       0.50503000
   118  C          0.18375000       0.81517160      -0.00503000
   119  C          0.68375000       0.68482840       0.49497000
   120  C          0.81625000       0.18482840       0.00503000
   121  H          0.19409900       0.33448400       0.49176600
   122  H          0.30590100       0.83448400       0.00823400
   123  H          0.80590100       0.66551600       0.50823400
   124  H          0.69409900       0.16551600      -0.00823400
   125  H          0.31259600       0.26240600       0.48416800
   126  H          0.18740400       0.76240600       0.01583200
   127  H          0.68740400       0.73759400       0.51583200
   128  H          0.81259600       0.23759400       0.98416800
   129  H          0.38233400       0.34200500       0.45207400
   130  H          0.11766600       0.84200500       0.04792600
   131  H          0.61766600       0.65799500       0.54792600
   132  H          0.88233400       0.15799500       0.95207400
