data_DUZNOE02
_symmetry_space_group_name_H-M    'P1'
_symmetry_Int_Tables_number       1
loop_
_symmetry_equiv_pos_site_id
_symmetry_equiv_pos_as_xyz
1 x,y,z
_cell_length_a                   7.11902
_cell_length_b                   7.26783
_cell_length_c                   15.01716
_cell_angle_alpha                78.01201
_cell_angle_beta                 82.18201
_cell_angle_gamma                66.00701
loop_
_atom_site_label
_atom_site_type_symbol
_atom_site_fract_x
_atom_site_fract_y
_atom_site_fract_z
     1  O          0.81963120       0.29469130       0.95650500
     2  O          0.18036880       0.70530870       0.04349500
     3  O          0.06520110       0.58906120       0.57070500
     4  O          0.93479890       0.41093880       0.42929500
     5  O          0.71088890       0.74708120       0.66698500
     6  O          0.28911110       0.25291880       0.33301500
     7  O          0.70273890       0.79718120       0.83926500
     8  O          0.29726110       0.20281880       0.16073500
     9  N          0.98824130       0.17433140       0.82395600
    10  N          0.01175870       0.82566860       0.17604400
    11  N          0.72544130       0.28964140       0.73082600
    12  N          0.27455870       0.71035860       0.26917400
    13  C          0.26486150       0.54624150       0.79181700
    14  C          0.73513850       0.45375850       0.20818300
    15  C          0.26745150       0.52784150       0.70045700
    16  C          0.73254850       0.47215850       0.29954300
    17  H          0.39430000       0.46740000       0.66730000
    18  H          0.60570000       0.53260000       0.33270000
    19  C          0.08186150       0.59920150       0.65902700
    20  C          0.91813850       0.40079850       0.34097300
    21  C          0.89304850       0.68780150       0.70721700
    22  C          0.10695150       0.31219850       0.29278300
    23  C          0.89200850       0.70804150       0.79790700
    24  C          0.10799150       0.29195850       0.20209300
    25  C          0.07724150       0.63842150       0.84014700
    26  C          0.92275850       0.36157850       0.15985300
    27  H          0.07630000       0.65340000       0.90160000
    28  H          0.92370000       0.34660000       0.09840000
    29  C          0.45142150       0.46688150       0.84168700
    30  C          0.54857850       0.53311850       0.15831300
    31  H          0.43290000       0.49910000       0.90130000
    32  H          0.56710000       0.50090000       0.09870000
    33  C          0.64674150       0.35400150       0.81513700
    34  C          0.35325850       0.64599850       0.18486300
    35  C          0.81888150       0.27775160       0.87709700
    36  C          0.18111850       0.72224840       0.12290300
    37  C          0.92215160       0.18899150       0.73883700
    38  C          0.07784840       0.81100850       0.26116300
    39  C          0.07177160       0.09910170       0.66514800
    40  C          0.92822840       0.90089830       0.33485200
    41  H         -0.00200000       0.11940000       0.61100000
    42  H          0.00200000       0.88060000       0.38900000
    43  H          0.14640000       0.95250000       0.68580000
    44  H          0.85360000       0.04750000       0.31420000
    45  H          0.16970000       0.16600000       0.64990000
    46  H          0.83030000       0.83400000       0.35010000
    47  C          0.19573160       0.06867170       0.85576800
    48  C          0.80426840       0.93132830       0.14423200
    49  H          0.24800000       0.16900000       0.86430000
    50  H          0.75200000       0.83100000       0.13570000
    51  H          0.28570000      -0.01240000       0.81050000
    52  H          0.71430000       0.01240000       0.18950000
    53  H          0.19320000       0.97820000       0.91380000
    54  H          0.80680000       0.02180000       0.08620000
    55  C          0.25332160       0.51777180       0.51663700
    56  C          0.74667840       0.48222820       0.48336300
    57  H          0.32590000       0.60840000       0.51360000
    58  H          0.67410000       0.39160000       0.48640000
    59  H          0.22330000       0.51700000       0.45500000
    60  H          0.77670000       0.48300000       0.54500000
    61  H          0.34000000       0.37890000       0.54420000
    62  H          0.66000000       0.62110000       0.45580000
    63  C          0.65046830       0.94381180       0.61103800
    64  C          0.34953170       0.05618820       0.38896200
    65  H          0.63220000       0.04650000       0.64820000
    66  H          0.36780000       0.95350000       0.35180000
    67  H          0.52040000       0.97650000       0.58410000
    68  H          0.47960000       0.02350000       0.41590000
    69  H          0.75730000       0.94360000       0.56240000
    70  H          0.24270000       0.05640000       0.43760000
    71  C          0.69778830       0.80397180       0.93380700
    72  C          0.30221170       0.19602820       0.06619300
    73  H          0.77250000       0.66630000       0.96660000
    74  H          0.22750000       0.33370000       0.03340000
    75  H          0.55450000       0.85550000       0.95830000
    76  H          0.44550000       0.14450000       0.04170000
    77  H          0.76300000       0.89480000       0.94150000
    78  H          0.23700000       0.10520000       0.05850000
