data_DUZNOE01
_symmetry_space_group_name_H-M    'P1'
_symmetry_Int_Tables_number       1
loop_
_symmetry_equiv_pos_site_id
_symmetry_equiv_pos_as_xyz
1 x,y,z
_cell_length_a                   7.33249
_cell_length_b                   29.2773
_cell_length_c                   7.41718
_cell_angle_alpha                90.0
_cell_angle_beta                 117.4024
_cell_angle_gamma                90.0
loop_
_atom_site_label
_atom_site_type_symbol
_atom_site_fract_x
_atom_site_fract_y
_atom_site_fract_z
     1  O          0.27763000       0.97789700       0.18143000
     2  O          0.72237000       0.47789700       0.31857000
     3  O          0.72237000       0.02210300       0.81857000
     4  O          0.27763000       0.52210300       0.68143000
     5  O          0.40413000       0.78732600       0.96533000
     6  O          0.59587000       0.28732600       0.53467000
     7  O          0.59587000       0.21267400       0.03467000
     8  O          0.40413000       0.71267400       0.46533000
     9  O          0.60503000       0.83479700       0.30623000
    10  O          0.39497000       0.33479700       0.19377000
    11  O          0.39497000       0.16520300       0.69377000
    12  O          0.60503000       0.66520300       0.80623000
    13  O          0.73043000       0.92033700       0.30283000
    14  O          0.26957000       0.42033700       0.19717000
    15  O          0.26957000       0.07966300       0.69717000
    16  O          0.73043000       0.57966300       0.80283000
    17  N          0.10114000       0.91167800       0.02964000
    18  N          0.89886000       0.41167800       0.47036000
    19  N          0.89886000       0.08832200       0.97036000
    20  N          0.10114000       0.58832200       0.52964000
    21  N          0.17774000       0.86602800       0.29973000
    22  N          0.82226000       0.36602800       0.20027000
    23  N          0.82226000       0.13397200       0.70027000
    24  N          0.17774000       0.63397200       0.79973000
    25  C          0.45684000       0.89725100       0.75124000
    26  C          0.54316000       0.39725100       0.74876000
    27  C          0.54316000       0.10274900       0.24876000
    28  C          0.45684000       0.60274900       0.25124000
    29  C          0.39884000       0.85204900       0.75624000
    30  C          0.60116000       0.35204900       0.74376000
    31  C          0.60116000       0.14795100       0.24376000
    32  C          0.39884000       0.64795100       0.25624000
    33  H          0.32330000       0.83560000       0.63350000
    34  H          0.67670000       0.33560000       0.86650000
    35  H          0.67670000       0.16440000       0.36650000
    36  H          0.32330000       0.66440000       0.13350000
    37  C          0.45254000       0.83141100       0.94204000
    38  C          0.54746000       0.33141100       0.55796000
    39  C          0.54746000       0.16858900       0.05796000
    40  C          0.45254000       0.66858900       0.44204000
    41  C          0.56325000       0.85506100       0.12424000
    42  C          0.43675000       0.35506100       0.37576000
    43  C          0.43675000       0.14493900       0.87576000
    44  C          0.56325000       0.64493900       0.62424000
    45  C          0.62234000       0.89994100       0.11844000
    46  C          0.37766000       0.39994100       0.38156000
    47  C          0.37766000       0.10005900       0.88156000
    48  C          0.62234000       0.60005900       0.61844000
    49  C          0.57264000       0.92118100       0.93294000
    50  C          0.42736000       0.42118100       0.56706000
    51  C          0.42736000       0.07881900       0.06706000
    52  C          0.57264000       0.57881900       0.43294000
    53  H          0.61660000       0.95150000       0.92960000
    54  H          0.38340000       0.45150000       0.57040000
    55  H          0.38340000       0.04850000       0.07040000
    56  H          0.61660000       0.54850000       0.42960000
    57  C          0.39984000       0.92200100       0.56154000
    58  C          0.60016000       0.42200100       0.93846000
    59  C          0.60016000       0.07799900       0.43846000
    60  C          0.39984000       0.57799900       0.06154000
    61  H          0.45690000       0.95170000       0.57560000
    62  H          0.54310000       0.45170000       0.92440000
    63  H          0.54310000       0.04830000       0.42440000
    64  H          0.45690000       0.54830000       0.07560000
    65  C          0.27754000       0.90843900       0.36964000
    66  C          0.72246000       0.40843900       0.13036000
    67  C          0.72246000       0.09156100       0.63036000
    68  C          0.27754000       0.59156100       0.86964000
    69  C          0.22724000       0.93860100       0.19174000
    70  C          0.77276000       0.43860100       0.30826000
    71  C          0.77276000       0.06139900       0.80826000
    72  C          0.22724000       0.56139900       0.69174000
    73  C          0.08024000       0.86950100       0.10434000
    74  C          0.91976000       0.36950100       0.39566000
    75  C          0.91976000       0.13049900       0.89566000
    76  C          0.08024000       0.63049900       0.60434000
    77  C          0.95865000       0.83238100       0.96466000
    78  C          0.04135000       0.33238100       0.53534000
    79  C          0.04135000       0.16761900       0.03534000
    80  C          0.95865000       0.66761900       0.46466000
    81  H          0.95580000       0.80590000       0.04400000
    82  H          0.04420000       0.30590000       0.45600000
    83  H          0.04420000       0.19410000       0.95600000
    84  H          0.95580000       0.69410000       0.54400000
    85  H          0.02190000       0.82370000       0.87850000
    86  H         -0.02190000       0.32370000       0.62150000
    87  H         -0.02190000       0.17630000       0.12150000
    88  H          0.02190000       0.67630000       0.37850000
    89  H          0.81810000       0.84300000       0.87920000
    90  H          0.18190000       0.34300000       0.62080000
    91  H          0.18190000       0.15700000       0.12080000
    92  H          0.81810000       0.65700000       0.37920000
    93  C          0.00695000       0.92687110       0.81796000
    94  C         -0.00695000       0.42687110       0.68204000
    95  C         -0.00695000       0.07312890       0.18204000
    96  C          0.00695000       0.57312890       0.31796000
    97  H          0.11250000       0.92910000       0.77230000
    98  H          0.88750000       0.42910000       0.72770000
    99  H          0.88750000       0.07090000       0.22770000
   100  H          0.11250000       0.57090000       0.27230000
   101  H          0.94310000       0.95680000       0.80700000
   102  H          0.05690000       0.45680000       0.69300000
   103  H          0.05690000       0.04320000       0.19300000
   104  H          0.94310000       0.54320000       0.30700000
   105  H          0.90190000       0.90480000       0.73300000
   106  H          0.09810000       0.40480000       0.76700000
   107  H          0.09810000       0.09520000       0.26700000
   108  H          0.90190000       0.59520000       0.23300000
   109  C          0.32165000       0.75888100       0.78955000
   110  C          0.67835000       0.25888100       0.71045000
   111  C          0.67835000       0.24111900       0.21045000
   112  C          0.32165000       0.74111900       0.28955000
   113  H          0.41170000       0.75980000       0.72470000
   114  H          0.58830000       0.25980000       0.77530000
   115  H          0.58830000       0.24020000       0.27530000
   116  H          0.41170000       0.74020000       0.22470000
   117  H          0.18450000       0.76990000       0.69370000
   118  H          0.81550000       0.26990000       0.80630000
   119  H          0.81550000       0.23010000       0.30630000
   120  H          0.18450000       0.73010000       0.19370000
   121  H          0.31170000       0.72740000       0.82910000
   122  H          0.68830000       0.22740000       0.67090000
   123  H          0.68830000       0.27260000       0.17090000
   124  H          0.31170000       0.77260000       0.32910000
   125  C          0.78745000       0.80786120       0.38845000
   126  C          0.21255000       0.30786120       0.11155000
   127  C          0.21255000       0.19213880       0.61155000
   128  C          0.78745000       0.69213880       0.88845000
   129  H          0.90590000       0.82740000       0.41610000
   130  H          0.09410000       0.32740000       0.08390000
   131  H          0.09410000       0.17260000       0.58390000
   132  H          0.90590000       0.67260000       0.91610000
   133  H          0.77630000       0.78410000       0.29070000
   134  H          0.22370000       0.28410000       0.20930000
   135  H          0.22370000       0.21590000       0.70930000
   136  H          0.77630000       0.71590000       0.79070000
   137  H          0.80550000       0.79350000       0.51500000
   138  H          0.19450000       0.29350000      -0.01500000
   139  H          0.19450000       0.20650000       0.48500000
   140  H          0.80550000       0.70650000       0.01500000
   141  C          0.77935000       0.96752100       0.30165000
   142  C          0.22065000       0.46752100       0.19835000
   143  C          0.22065000       0.03247900       0.69835000
   144  C          0.77935000       0.53247900       0.80165000
   145  H          0.65380000       0.98460000       0.21670000
   146  H          0.34620000       0.48460000       0.28330000
   147  H          0.34620000       0.01540000       0.78330000
   148  H          0.65380000       0.51540000       0.71670000
   149  H          0.87730000       0.97090000       0.24680000
   150  H          0.12270000       0.47090000       0.25320000
   151  H          0.12270000       0.02910000       0.75320000
   152  H          0.87730000       0.52910000       0.74680000
   153  H          0.84040000       0.97950000       0.44060000
   154  H          0.15960000       0.47950000       0.05940000
   155  H          0.15960000       0.02050000       0.55940000
   156  H          0.84040000       0.52050000       0.94060000
