data_DUZNOE03
_symmetry_space_group_name_H-M    'P1'
_symmetry_Int_Tables_number       1
loop_
_symmetry_equiv_pos_site_id
_symmetry_equiv_pos_as_xyz
1 x,y,z
_cell_length_a                   7.39015
_cell_length_b                   25.174818
_cell_length_c                   8.04386
_cell_angle_alpha                90.0
_cell_angle_beta                 108.9923
_cell_angle_gamma                90.0
loop_
_atom_site_label
_atom_site_type_symbol
_atom_site_fract_x
_atom_site_fract_y
_atom_site_fract_z
     1  O          0.18263170       0.70119500       0.18927160
     2  O          0.81736830       0.20119500       0.31072840
     3  O          0.81736830       0.29880500       0.81072840
     4  O          0.18263170       0.79880500       0.68927160
     5  O          0.56109180       0.72390500       0.28392160
     6  O          0.43890820       0.22390500       0.21607840
     7  O          0.43890820       0.27609500       0.71607840
     8  O          0.56109180       0.77609500       0.78392160
     9  O          0.81817160       0.66805500       0.52338150
    10  O          0.18182840       0.16805500       0.97661850
    11  O          0.18182840       0.33194500       0.47661850
    12  O          0.81817160       0.83194500       0.02338150
    13  O          0.15837170       0.45183500       0.71735160
    14  O          0.84162830       0.95183500       0.78264840
    15  O          0.84162830       0.54816500       0.28264840
    16  O          0.15837170       0.04816500       0.21735160
    17  N          0.61798190       0.50668500       0.77611170
    18  N          0.38201810       0.00668500       0.72388830
    19  N          0.38201810       0.49331500       0.22388830
    20  N          0.61798190       0.99331500       0.27611170
    21  N          0.47962000       0.43858500       0.87184180
    22  N          0.52038000       0.93858500       0.62815820
    23  N          0.52038000       0.56141500       0.12815820
    24  N          0.47962000       0.06141500       0.37184180
    25  C          0.38352000       0.59312600       0.50822000
    26  C          0.61648000       0.09312600      -0.00822000
    27  C          0.61648000       0.40687400       0.49178000
    28  C          0.38352000       0.90687400       0.00822000
    29  C          0.24582000       0.62511600       0.38852000
    30  C          0.75418000       0.12511600       0.11148000
    31  C          0.75418000       0.37488400       0.61148000
    32  C          0.24582000       0.87488400       0.88852000
    33  H          0.11370000       0.61670000       0.35820000
    34  H          0.88630000       0.11670000       0.14180000
    35  H          0.88630000       0.38330000       0.64180000
    36  H          0.11370000       0.88330000       0.85820000
    37  C          0.30382000       0.66923600       0.31442000
    38  C          0.69618000       0.16923600       0.18558000
    39  C          0.69618000       0.33076400       0.68558000
    40  C          0.30382000       0.83076400       0.81442000
    41  C          0.49742000       0.68241600       0.36142000
    42  C          0.50258000       0.18241600       0.13858000
    43  C          0.50258000       0.31758400       0.63858000
    44  C          0.49742000       0.81758400       0.86142000
    45  C          0.63342000       0.65101600       0.48382000
    46  C          0.36658000       0.15101600       0.01618000
    47  C          0.36658000       0.34898400       0.51618000
    48  C          0.63342000       0.84898400      -0.01618000
    49  C          0.57802000       0.60630600       0.55632000
    50  C          0.42198000       0.10630600       0.94368000
    51  C          0.42198000       0.39369400       0.44368000
    52  C          0.57802000       0.89369400       0.05632000
    53  H          0.67120000       0.58480000       0.63780000
    54  H          0.32880000       0.08480000       0.86220000
    55  H          0.32880000       0.41520000       0.36220000
    56  H          0.67120000       0.91520000       0.13780000
    57  C          0.31572000       0.54613600       0.57672000
    58  C          0.68428000       0.04613600       0.92328000
    59  C          0.68428000       0.45386400       0.42328000
    60  C          0.31572000       0.95386400       0.07672000
    61  H          0.18140000       0.54030000       0.53360000
    62  H          0.81860000       0.04030000       0.96640000
    63  H          0.81860000       0.45970000       0.46640000
    64  H          0.18140000       0.95970000       0.03360000
    65  C          0.41802000       0.50979600       0.69302000
    66  C          0.58198000       0.00979600       0.80698000
    67  C          0.58198000       0.49020400       0.30698000
    68  C          0.41802000       0.99020400       0.19302000
    69  C          0.32552000       0.46459600       0.75372000
    70  C          0.67448000       0.96459600       0.74628000
    71  C          0.67448000       0.53540400       0.24628000
    72  C          0.32552000       0.03540400       0.25372000
    73  C          0.64632000       0.46478600       0.87552000
    74  C          0.35368000       0.96478600       0.62448000
    75  C          0.35368000       0.53521400       0.12448000
    76  C          0.64632000       0.03521400       0.37552000
    77  C          0.83792000       0.44501700      -0.01538000
    78  C          0.16208000       0.94501700       0.51538000
    79  C          0.16208000       0.55498300       0.01538000
    80  C          0.83792000       0.05498300       0.48462000
    81  H          0.93480000       0.45750000       0.93470000
    82  H          0.06520000       0.95750000       0.56530000
    83  H          0.06520000       0.54250000       0.06530000
    84  H          0.93480000       0.04250000       0.43470000
    85  H          0.83710000       0.40610000      -0.01390000
    86  H          0.16290000       0.90610000       0.51390000
    87  H          0.16290000       0.59390000       0.01390000
    88  H          0.83710000       0.09390000       0.48610000
    89  H          0.86790000       0.45840000       0.10490000
    90  H          0.13210000       0.95840000       0.39510000
    91  H          0.13210000       0.54160000       0.89510000
    92  H          0.86790000       0.04160000       0.60490000
    93  C          0.45813000       0.39235700       0.97172000
    94  C          0.54187000       0.89235700       0.52828000
    95  C          0.54187000       0.60764300       0.02828000
    96  C          0.45813000       0.10764300       0.47172000
    97  H          0.39190000       0.40260000       0.05440000
    98  H          0.60810000       0.90260000       0.44560000
    99  H          0.60810000       0.59740000       0.94560000
   100  H          0.39190000       0.09740000       0.55440000
   101  H          0.58470000       0.37800000       0.03690000
   102  H          0.41530000       0.87800000       0.46310000
   103  H          0.41530000       0.62200000       0.96310000
   104  H          0.58470000       0.12200000       0.53690000
   105  H          0.38310000       0.36520000       0.89110000
   106  H          0.61690000       0.86520000       0.60890000
   107  H          0.61690000       0.63480000       0.10890000
   108  H          0.38310000       0.13480000       0.39110000
   109  C         -0.01663000       0.69738800       0.16443000
   110  C          0.01663000       0.19738800       0.33557000
   111  C          0.01663000       0.30261200       0.83557000
   112  C         -0.01663000       0.80261200       0.66443000
   113  H          0.93610000       0.66250000       0.11510000
   114  H          0.06390000       0.16250000       0.38490000
   115  H          0.06390000       0.33750000       0.88490000
   116  H          0.93610000       0.83750000       0.61510000
   117  H          0.91470000       0.72530000       0.08330000
   118  H          0.08530000       0.22530000       0.41670000
   119  H          0.08530000       0.27470000       0.91670000
   120  H          0.91470000       0.77470000       0.58330000
   121  H          0.96210000       0.70180000       0.27770000
   122  H          0.03790000       0.20180000       0.22230000
   123  H          0.03790000       0.29820000       0.72230000
   124  H          0.96210000       0.79820000       0.77770000
   125  C          0.50273000       0.77537700       0.32052000
   126  C          0.49727000       0.27537700       0.17948000
   127  C          0.49727000       0.22462300       0.67948000
   128  C          0.50273000       0.72462300       0.82052000
   129  H          0.37140000       0.78220000       0.24400000
   130  H          0.62860000       0.28220000       0.25600000
   131  H          0.62860000       0.21780000       0.75600000
   132  H          0.37140000       0.71780000       0.74400000
   133  H          0.58850000       0.80220000       0.29880000
   134  H          0.41150000       0.30220000       0.20120000
   135  H          0.41150000       0.19780000       0.70120000
   136  H          0.58850000       0.69780000       0.79880000
   137  H          0.50810000       0.77710000       0.44370000
   138  H          0.49190000       0.27710000       0.05630000
   139  H          0.49190000       0.22290000       0.55630000
   140  H          0.50810000       0.72290000       0.94370000
   141  C          0.95692000       0.64053800       0.66202000
   142  C          0.04308000       0.14053800       0.83798000
   143  C          0.04308000       0.35946200       0.33798000
   144  C          0.95692000       0.85946200       0.16202000
   145  H          0.92190000       0.64270000       0.76930000
   146  H          0.07810000       0.14270000       0.73070000
   147  H          0.07810000       0.35730000       0.23070000
   148  H          0.92190000       0.85730000       0.26930000
   149  H          0.08290000       0.65680000       0.68290000
   150  H          0.91710000       0.15680000       0.81710000
   151  H          0.91710000       0.34320000       0.31710000
   152  H          0.08290000       0.84320000       0.18290000
   153  H          0.96130000       0.60320000       0.62900000
   154  H          0.03870000       0.10320000       0.87100000
   155  H          0.03870000       0.39680000       0.37100000
   156  H          0.96130000       0.89680000       0.12900000
