data_EFONOE22
_symmetry_space_group_name_H-M    'P1'
_symmetry_Int_Tables_number       1
loop_
_symmetry_equiv_pos_site_id
_symmetry_equiv_pos_as_xyz
1 x,y,z
_cell_length_a                   7.25225
_cell_length_b                   11.43898
_cell_length_c                   17.705013
_cell_angle_alpha                90.0
_cell_angle_beta                 104.3857
_cell_angle_gamma                90.0
loop_
_atom_site_label
_atom_site_type_symbol
_atom_site_fract_x
_atom_site_fract_y
_atom_site_fract_z
     1  O          0.44506000       0.56093000       0.73838180
     2  O          0.55494000       0.06093000       0.76161820
     3  O          0.55494000       0.43907000       0.26161820
     4  O          0.44506000       0.93907000       0.23838180
     5  O          0.20748000       0.12024000       0.45533000
     6  O          0.79252000       0.62024000       0.04467000
     7  O          0.79252000       0.87976000       0.54467000
     8  O          0.20748000       0.37976000       0.95533000
     9  C          0.31842000       0.44303160       0.62894100
    10  C          0.68158000       0.94303160       0.87105900
    11  C          0.68158000       0.55696840       0.37105900
    12  C          0.31842000       0.05696840       0.12894100
    13  C          0.29722000       0.52874150       0.56983100
    14  C          0.70278000       0.02874150       0.93016900
    15  C          0.70278000       0.47125850       0.43016900
    16  C          0.29722000       0.97125850       0.06983100
    17  C          0.32433000       0.65077180       0.58606140
    18  C          0.67567000       0.15077180       0.91393860
    19  C          0.67567000       0.34922820       0.41393860
    20  C          0.32433000       0.84922820       0.08606140
    21  H          0.36030000       0.67320000       0.64561500
    22  H          0.63970000       0.17320000       0.85438500
    23  H          0.63970000       0.32680000       0.35438500
    24  H          0.36030000       0.82680000       0.14561500
    25  C          0.30613000       0.73042000       0.52799170
    26  C          0.69387000       0.23042000       0.97200830
    27  C          0.69387000       0.26958000       0.47200830
    28  C          0.30613000       0.76958000       0.02799170
    29  H          0.33540000       0.82130000       0.54131500
    30  H          0.66460000       0.32130000       0.95868500
    31  H          0.66460000       0.17870000       0.45868500
    32  H          0.33540000       0.67870000       0.04131500
    33  C          0.25953000       0.69742000       0.44811150
    34  C          0.74047000       0.19742000       0.05188850
    35  C          0.74047000       0.30258000       0.55188850
    36  C          0.25953000       0.80258000       0.94811150
    37  C          0.24734000       0.77973000       0.38802000
    38  C          0.75266000       0.27973000       0.11198000
    39  C          0.75266000       0.22027000       0.61198000
    40  C          0.24734000       0.72027000       0.88802000
    41  H          0.27650000       0.87330000       0.40820000
    42  H          0.72350000       0.37330000       0.09180000
    43  H          0.72350000       0.12670000       0.59180000
    44  H          0.27650000       0.62670000       0.90820000
    45  C          0.20244000       0.74464000       0.31113000
    46  C          0.79756000       0.24464000       0.18887000
    47  C          0.79756000       0.25536000       0.68887000
    48  C          0.20244000       0.75536000       0.81113000
    49  H          0.19150000       0.80330000       0.26520000
    50  H          0.80850000       0.30330000       0.23480000
    51  H          0.80850000       0.19670000       0.73480000
    52  H          0.19150000       0.69670000       0.76520000
    53  C          0.16824000       0.62855000       0.29246180
    54  C          0.83176000       0.12855000       0.20753820
    55  C          0.83176000       0.37145000       0.70753820
    56  C          0.16824000       0.87145000       0.79246180
    57  H          0.13540000       0.60430000       0.23320000
    58  H          0.86460000       0.10430000       0.26680000
    59  H          0.86460000       0.39570000       0.76680000
    60  H          0.13540000       0.89570000       0.73320000
    61  C          0.17943000       0.54443000       0.35037120
    62  C          0.82057000       0.04443000       0.14962880
    63  C          0.82057000       0.45557000       0.64962880
    64  C          0.17943000       0.95557000       0.85037120
    65  C          0.14553000       0.42393000       0.33249150
    66  C          0.85447000       0.92393000       0.16750850
    67  C          0.85447000       0.57607000       0.66750850
    68  C          0.14553000       0.07607000       0.83249150
    69  H          0.11040000       0.40220000       0.27231800
    70  H          0.88960000       0.90220000       0.22768200
    71  H          0.88960000       0.59780000       0.72768200
    72  H          0.11040000       0.09780000       0.77231800
    73  C          0.16113000       0.34253000       0.38850140
    74  C          0.83887000       0.84253000       0.11149860
    75  C          0.83887000       0.65747000       0.61149860
    76  C          0.16113000       0.15747000       0.88850140
    77  H          0.14040000       0.24930000       0.37541600
    78  H          0.85960000       0.74930000       0.12458400
    79  H          0.85960000       0.75070000       0.62458400
    80  H          0.14040000       0.25070000       0.87541600
    81  C          0.21392000       0.37345180       0.46954100
    82  C          0.78608000       0.87345180       0.03045900
    83  C          0.78608000       0.62654820       0.53045900
    84  C          0.21392000       0.12654820       0.96954100
    85  C          0.23653000       0.28952180       0.52985120
    86  C          0.76347000       0.78952180       0.97014880
    87  C          0.76347000       0.71047820       0.47014880
    88  C          0.23653000       0.21047820       0.02985120
    89  C          0.28603000       0.32724170       0.60713120
    90  C          0.71397000       0.82724170       0.89286880
    91  C          0.71397000       0.67275830       0.39286880
    92  C          0.28603000       0.17275830       0.10713120
    93  H          0.30530000       0.26091900       0.65231200
    94  H          0.69470000       0.76091900       0.84768800
    95  H          0.69470000       0.73908100       0.34768800
    96  H          0.30530000       0.23908100       0.15231200
    97  C          0.24482000       0.49313160       0.49017100
    98  C          0.75518000      -0.00686840       0.00982900
    99  C          0.75518000       0.50686840       0.50982900
   100  C          0.24482000       0.00686840       0.99017100
   101  C          0.22682000       0.57842000       0.42979110
   102  C          0.77318000       0.07842000       0.07020890
   103  C          0.77318000       0.42158000       0.57020890
   104  C          0.22682000       0.92158000       0.92979110
   105  C          0.38053000       0.46912000       0.71354130
   106  C          0.61947000       0.96912000       0.78645870
   107  C          0.61947000       0.53088000       0.28645870
   108  C          0.38053000       0.03088000       0.21354130
   109  C          0.35906000       0.37963000       0.77206160
   110  C          0.64094000       0.87963000       0.72793840
   111  C          0.64094000       0.62037000       0.22793840
   112  C          0.35906000       0.12037000       0.27206160
   113  H          0.45860000       0.32140000       0.77720000
   114  H          0.54140000       0.82140000       0.72280000
   115  H          0.54140000       0.67860000       0.22280000
   116  H          0.45860000       0.17860000       0.27720000
   117  H          0.38150000       0.41830000       0.82720000
   118  H          0.61850000       0.91830000       0.67280000
   119  H          0.61850000       0.58170000       0.17280000
   120  H          0.38150000       0.08170000       0.32720000
   121  H          0.23450000       0.33730000       0.76120000
   122  H          0.76550000       0.83730000       0.73880000
   123  H          0.76550000       0.66270000       0.23880000
   124  H          0.23450000       0.16270000       0.26120000
   125  C          0.21974000       0.16073000       0.51689190
   126  C          0.78026000       0.66073000       0.98310810
   127  C          0.78026000       0.83927000       0.48310810
   128  C          0.21974000       0.33927000       0.01689190
   129  C          0.20217000       0.08163000       0.58202000
   130  C          0.79783000       0.58163000       0.91798000
   131  C          0.79783000       0.91837000       0.41798000
   132  C          0.20217000       0.41837000       0.08202000
   133  H          0.16550000      -0.00240000       0.56320000
   134  H          0.83450000       0.49760000       0.93680000
   135  H          0.83450000       0.00240000       0.43680000
   136  H          0.16550000       0.50240000       0.06320000
   137  H          0.34970000       0.07840000       0.61930000
   138  H          0.65030000       0.57840000       0.88070000
   139  H          0.65030000       0.92160000       0.38070000
   140  H          0.34970000       0.42160000       0.11930000
   141  H          0.13510000       0.11360000       0.62440000
   142  H          0.86490000       0.61360000       0.87560000
   143  H          0.86490000       0.88640000       0.37560000
   144  H          0.13510000       0.38640000       0.12440000
