data_EFONOE09
_symmetry_space_group_name_H-M    'P1'
_symmetry_Int_Tables_number       1
loop_
_symmetry_equiv_pos_site_id
_symmetry_equiv_pos_as_xyz
1 x,y,z
_cell_length_a                   7.1511013
_cell_length_b                   10.9079319
_cell_length_c                   17.77443
_cell_angle_alpha                90.0
_cell_angle_beta                 102.494419
_cell_angle_gamma                90.0
loop_
_atom_site_label
_atom_site_type_symbol
_atom_site_fract_x
_atom_site_fract_y
_atom_site_fract_z
     1  C          0.24478500       0.98443400       0.49283200
     2  C          0.75521500       0.48443400       0.00716800
     3  C          0.75521500       0.01556600       0.50716800
     4  C          0.24478500       0.51556600      -0.00716800
     5  C          0.21200500       0.85681400       0.47683200
     6  C          0.78799500       0.35681400       0.02316800
     7  C          0.78799500       0.14318600       0.52316800
     8  C          0.21200500       0.64318600       0.97683200
     9  C          0.22871500       0.06898400       0.43002200
    10  C          0.77128500       0.56898400       0.06997800
    11  C          0.77128500       0.93101600       0.56997800
    12  C          0.22871500       0.43101600       0.93002200
    13  C          0.31885500       0.94312400       0.63187200
    14  C          0.68114500       0.44312400       0.86812800
    15  C          0.68114500       0.05687600       0.36812800
    16  C          0.31885500       0.55687600       0.13187200
    17  C          0.29950500       0.02878400       0.57028200
    18  C          0.70049500       0.52878400       0.92971800
    19  C          0.70049500       0.97121600       0.42971800
    20  C          0.29950500       0.47121600       0.07028200
    21  C          0.28292600       0.81931400       0.61471200
    22  C          0.71707400       0.31931400       0.88528800
    23  C          0.71707400       0.18068600       0.38528800
    24  C          0.28292600       0.68068600       0.11471200
    25  C          0.23493600       0.77370400       0.53955200
    26  C          0.76506400       0.27370400       0.96044800
    27  C          0.76506400       0.22629600       0.46044800
    28  C          0.23493600       0.72629600       0.03955200
    29  C          0.26763600       0.19562400       0.44402200
    30  C          0.73236400       0.69562400       0.05597800
    31  C          0.73236400       0.80437600       0.55597800
    32  C          0.26763600       0.30437600       0.94402200
    33  C          0.17937600       0.02675400       0.35259200
    34  C          0.82062400       0.52675400       0.14740800
    35  C          0.82062400       0.97324600       0.64740800
    36  C          0.17937600       0.47324600       0.85259200
    37  C          0.31714600       0.23754400       0.52218300
    38  C          0.68285400       0.73754400       0.97781700
    39  C          0.68285400       0.76245600       0.47781700
    40  C          0.31714600       0.26245600       0.02218300
    41  C          0.15480600       0.81799400       0.39769200
    42  C          0.84519400       0.31799400       0.10230800
    43  C          0.84519400       0.18200600       0.60230800
    44  C          0.15480600       0.68200600       0.89769200
    45  O          0.46975500       0.07259300       0.73580917
    46  O          0.53024500       0.57259300       0.76419083
    47  O          0.53024500       0.92740700       0.26419083
    48  O          0.46975500       0.42740700       0.23580917
    49  C          0.33096600       0.15837400       0.58221300
    50  C          0.66903400       0.65837400       0.91778700
    51  C          0.66903400       0.84162600       0.41778700
    52  C          0.33096600       0.34162600       0.08221300
    53  C          0.14079600       0.89905400       0.33877300
    54  C          0.85920400       0.39905400       0.16122700
    55  C          0.85920400       0.10094600       0.66122700
    56  C          0.14079600       0.60094600       0.83877300
    57  C          0.17250600       0.10987500       0.29181300
    58  C          0.82749400       0.60987500       0.20818700
    59  C          0.82749400       0.89012500       0.70818700
    60  C          0.17250600       0.39012500       0.79181300
    61  C          0.26037600       0.27637500       0.38188300
    62  C          0.73962400       0.77637500       0.11811700
    63  C          0.73962400       0.72362500       0.61811700
    64  C          0.26037600       0.22362500       0.88188300
    65  C          0.38565600       0.97700400       0.71504200
    66  C          0.61434400       0.47700400       0.78495800
    67  C          0.61434400       0.02299600       0.28495800
    68  C          0.38565600       0.52299600       0.21504200
    69  C          0.22407600       0.63727400       0.52986200
    70  C          0.77592400       0.13727400       0.97013800
    71  C          0.77592400       0.36272600       0.47013800
    72  C          0.22407600       0.86272600       0.02986200
    73  O          0.25524500       0.58639300       0.47272618
    74  O          0.74475500       0.08639300       0.02727382
    75  O          0.74475500       0.41360700       0.52727382
    76  O          0.25524500       0.91360700       0.97272618
    77  C          0.21354600       0.23335500       0.30635300
    78  C          0.78645400       0.73335500       0.19364700
    79  C          0.78645400       0.76664500       0.69364700
    80  C          0.21354600       0.26664500       0.80635300
    81  C          0.17875800       0.56157500       0.59495300
    82  C          0.82124200       0.06157500       0.90504700
    83  C          0.82124200       0.43842500       0.40504700
    84  C          0.17875800       0.93842500       0.09495300
    85  C          0.34911800       0.88767500       0.77526300
    86  C          0.65088200       0.38767500       0.72473700
    87  C          0.65088200       0.11232500       0.22473700
    88  C          0.34911800       0.61232500       0.27526300
    89  H          0.30158000       0.75445000       0.66103000
    90  H          0.69842000       0.25445000       0.83897000
    91  H          0.69842000       0.24555000       0.33897000
    92  H          0.30158000       0.74555000       0.16103000
    93  H          0.21368000       0.29495000       0.26003000
    94  H          0.78632000       0.79495000       0.23997000
    95  H          0.78632000       0.70505000       0.73997000
    96  H          0.21368000       0.20505000       0.76003000
    97  H          0.12878000       0.72476000       0.38683000
    98  H          0.87122000       0.22476000       0.11317000
    99  H          0.87122000       0.27524000       0.61317000
   100  H          0.12878000       0.77524000       0.88683000
   101  H          0.13779000       0.07575000       0.23403000
   102  H          0.86221000       0.57575000       0.26597000
   103  H          0.86221000       0.92425000       0.76597000
   104  H          0.13779000       0.42425000       0.73403000
   105  H          0.34688000       0.33195000       0.53163000
   106  H          0.65312000       0.83195000       0.96837000
   107  H          0.65312000       0.66805000       0.46837000
   108  H          0.34688000       0.16805000       0.03163000
   109  H          0.43391000       0.81016000       0.77583000
   110  H          0.56609000       0.31016000       0.72417000
   111  H          0.56609000       0.18984000       0.22417000
   112  H          0.43391000       0.68984000       0.27583000
   113  H          0.36968000       0.19125000       0.63853000
   114  H          0.63032000       0.69125000       0.86147000
   115  H          0.63032000       0.80875000       0.36147000
   116  H          0.36968000       0.30875000       0.13853000
   117  H          0.20171000       0.85836000       0.76243000
   118  H          0.79829000       0.35836000       0.73757000
   119  H          0.79829000       0.14164000       0.23757000
   120  H          0.20171000       0.64164000       0.26243000
   121  H          0.38121000       0.93155000       0.82974000
   122  H          0.61879000       0.43155000       0.67026000
   123  H          0.61879000       0.06845000       0.17026000
   124  H          0.38121000       0.56845000       0.32974000
   125  H          0.29398000       0.37035000       0.39393000
   126  H          0.70602000       0.87035000       0.10607000
   127  H          0.70602000       0.62965000       0.60607000
   128  H          0.29398000       0.12965000       0.89393000
   129  H          0.10218000       0.86865000       0.28013000
   130  H          0.89782000       0.36865000       0.21987000
   131  H          0.89782000       0.13135000       0.71987000
   132  H          0.10218000       0.63135000       0.78013000
   133  H          0.06201000       0.59856000       0.61534000
   134  H          0.93799000       0.09856000       0.88466000
   135  H          0.93799000       0.40144000       0.38466000
   136  H          0.06201000       0.90144000       0.11534000
   137  H          0.14339000       0.47236000       0.57363000
   138  H          0.85661000       0.97236000       0.92637000
   139  H          0.85661000       0.52764000       0.42637000
   140  H          0.14339000       0.02764000       0.07363000
   141  H          0.30091000       0.55835000       0.64083000
   142  H          0.69909000       0.05835000       0.85917000
   143  H          0.69909000       0.44165000       0.35917000
   144  H          0.30091000       0.94165000       0.14083000
