data_EFONOE
_symmetry_space_group_name_H-M    'P1'
_symmetry_Int_Tables_number       1
loop_
_symmetry_equiv_pos_site_id
_symmetry_equiv_pos_as_xyz
1 x,y,z
_cell_length_a                   7.35193
_cell_length_b                   16.66549
_cell_length_c                   11.33445
_cell_angle_alpha                90.0
_cell_angle_beta                 90.0
_cell_angle_gamma                90.0
loop_
_atom_site_label
_atom_site_type_symbol
_atom_site_fract_x
_atom_site_fract_y
_atom_site_fract_z
     1  C          0.11193000       0.10257120       0.93578170
     2  C          0.38807000       0.89742880       0.43578170
     3  C          0.61193000       0.39742880       0.56421830
     4  C          0.88807000       0.60257120       0.06421830
     5  C          0.88807000       0.89742880       0.06421830
     6  C          0.61193000       0.10257120       0.56421830
     7  C          0.38807000       0.60257120       0.43578170
     8  C          0.11193000       0.39742880       0.93578170
     9  H          0.08580000       0.05170000       0.97170000
    10  H          0.41420000       0.94830000       0.47170000
    11  H          0.58580000       0.44830000       0.52830000
    12  H          0.91420000       0.55170000       0.02830000
    13  H          0.91420000       0.94830000       0.02830000
    14  H          0.58580000       0.05170000       0.52830000
    15  H          0.41420000       0.55170000       0.47170000
    16  H          0.08580000       0.44830000       0.97170000
    17  H          0.05100000       0.14440000       0.97860000
    18  H          0.44900000       0.85560000       0.47860000
    19  H          0.55100000       0.35560000       0.52140000
    20  H          0.94900000       0.64440000       0.02140000
    21  H          0.94900000       0.85560000       0.02140000
    22  H          0.55100000       0.14440000       0.52140000
    23  H          0.44900000       0.64440000       0.47860000
    24  H          0.05100000       0.35560000       0.97860000
    25  H          0.24070000       0.11190000       0.93720000
    26  H          0.25930000       0.88810000       0.43720000
    27  H          0.74070000       0.38810000       0.56280000
    28  H          0.75930000       0.61190000       0.06280000
    29  H          0.75930000       0.88810000       0.06280000
    30  H          0.74070000       0.11190000       0.56280000
    31  H          0.25930000       0.61190000       0.43720000
    32  H          0.24070000       0.38810000       0.93720000
    33  C          0.04643000       0.10214110       0.81030160
    34  C          0.45357000       0.89785890       0.31030160
    35  C          0.54643000       0.39785890       0.68969840
    36  C          0.95357000       0.60214110       0.18969840
    37  C          0.95357000       0.89785890       0.18969840
    38  C          0.54643000       0.10214110       0.68969840
    39  C          0.45357000       0.60214110       0.31030160
    40  C          0.04643000       0.39785890       0.81030160
    41  C          0.07322000       0.17665100       0.73823150
    42  C          0.42678000       0.82334900       0.23823150
    43  C          0.57322000       0.32334900       0.76176850
    44  C          0.92678000       0.67665100       0.26176850
    45  C          0.92678000       0.82334900       0.26176850
    46  C          0.57322000       0.17665100       0.76176850
    47  C          0.42678000       0.67665100       0.23823150
    48  C          0.07322000       0.32334900       0.73823150
    49  C          0.06523000       0.25000000       0.79602000
    50  C          0.43477000       0.75000000       0.29602000
    51  C          0.56523000       0.25000000       0.70398000
    52  C          0.93477000       0.75000000       0.20398000
    53  H          0.05400000       0.25000000       0.87780000
    54  H          0.44600000       0.75000000       0.37780000
    55  H          0.55400000       0.25000000       0.62220000
    56  H          0.94600000       0.75000000       0.12220000
    57  C          0.10042000       0.17537100       0.61470150
    58  C          0.39958000       0.82462900       0.11470150
    59  C          0.60042000       0.32462900       0.88529850
    60  C          0.89958000       0.67537100       0.38529850
    61  C          0.89958000       0.82462900       0.38529850
    62  C          0.60042000       0.17537100       0.88529850
    63  C          0.39958000       0.67537100       0.11470150
    64  C          0.10042000       0.32462900       0.61470150
    65  C          0.11883000       0.10235110       0.54783160
    66  C          0.38117000       0.89764890       0.04783160
    67  C          0.61883000       0.39764890       0.95216840
    68  C          0.88117000       0.60235110       0.45216840
    69  C          0.88117000       0.89764890       0.45216840
    70  C          0.61883000       0.10235110       0.95216840
    71  C          0.38117000       0.60235110       0.04783160
    72  C          0.11883000       0.39764890       0.54783160
    73  H          0.11100000       0.05330000       0.58660000
    74  H          0.38900000       0.94670000       0.08660000
    75  H          0.61100000       0.44670000       0.91340000
    76  H          0.88900000       0.55330000       0.41340000
    77  H          0.88900000       0.94670000       0.41340000
    78  H          0.61100000       0.05330000       0.91340000
    79  H          0.38900000       0.55330000       0.08660000
    80  H          0.11100000       0.44670000       0.58660000
    81  C          0.14713000       0.10337120       0.43037160
    82  C          0.35287000       0.89662880       0.93037160
    83  C          0.64713000       0.39662880       0.06962840
    84  C          0.85287000       0.60337120       0.56962840
    85  C          0.85287000       0.89662880       0.56962840
    86  C          0.64713000       0.10337120       0.06962840
    87  C          0.35287000       0.60337120       0.93037160
    88  C          0.14713000       0.39662880       0.43037160
    89  H          0.15620000       0.05500000       0.39000000
    90  H          0.34380000       0.94500000       0.89000000
    91  H          0.65620000       0.44500000       0.11000000
    92  H          0.84380000       0.55500000       0.61000000
    93  H          0.84380000       0.94500000       0.61000000
    94  H          0.65620000       0.05500000       0.11000000
    95  H          0.34380000       0.55500000       0.89000000
    96  H          0.15620000       0.44500000       0.39000000
    97  C          0.16352000       0.17669120       0.36644160
    98  C          0.33648000       0.82330880       0.86644160
    99  C          0.66352000       0.32330880       0.13355840
   100  C          0.83648000       0.67669120       0.63355840
   101  C          0.83648000       0.82330880       0.63355840
   102  C          0.66352000       0.17669120       0.13355840
   103  C          0.33648000       0.67669120       0.86644160
   104  C          0.16352000       0.32330880       0.36644160
   105  C          0.14893000       0.25000000       0.42892000
   106  C          0.35107000       0.75000000       0.92892000
   107  C          0.64893000       0.25000000       0.07108000
   108  C          0.85107000       0.75000000       0.57108000
   109  C          0.11763000       0.25000000       0.55362000
   110  C          0.38237000       0.75000000       0.05362000
   111  C          0.61763000       0.25000000       0.94638000
   112  C          0.88237000       0.75000000       0.44638000
   113  C          0.19303000       0.17816140       0.24444180
   114  C          0.30697000       0.82183860       0.74444180
   115  C          0.69303000       0.32183860       0.25555820
   116  C          0.80697000       0.67816140       0.75555820
   117  C          0.80697000       0.82183860       0.75555820
   118  C          0.69303000       0.17816140       0.25555820
   119  C          0.30697000       0.67816140       0.74444180
   120  C          0.19303000       0.32183860       0.24444180
   121  H          0.20330000       0.13020000       0.20300000
   122  H          0.29670000       0.86980000       0.70300000
   123  H          0.70330000       0.36980000       0.29700000
   124  H          0.79670000       0.63020000       0.79700000
   125  H          0.79670000       0.86980000       0.79700000
   126  H          0.70330000       0.13020000       0.29700000
   127  H          0.29670000       0.63020000       0.70300000
   128  H          0.20330000       0.36980000       0.20300000
   129  C          0.20684000       0.25000000       0.18543000
   130  C          0.29316000       0.75000000       0.68543000
   131  C          0.70684000       0.25000000       0.31457000
   132  C          0.79316000       0.75000000       0.81457000
   133  H          0.22580000       0.25000000       0.10420000
   134  H          0.27420000       0.75000000       0.60420000
   135  H          0.72580000       0.25000000       0.39580000
   136  H          0.77420000       0.75000000       0.89580000
   137  O          0.96968000       0.04354800       0.77058130
   138  O          0.53032000       0.95645200       0.27058130
   139  O          0.46968000       0.45645200       0.72941870
   140  O          0.03032000       0.54354800       0.22941870
   141  O          0.03032000       0.95645200       0.22941870
   142  O          0.46968000       0.04354800       0.72941870
   143  O          0.53032000       0.54354800       0.27058130
   144  O          0.96968000       0.45645200       0.77058130
