data_EFOPAS
_symmetry_space_group_name_H-M    'P1'
_symmetry_Int_Tables_number       1
loop_
_symmetry_equiv_pos_site_id
_symmetry_equiv_pos_as_xyz
1 x,y,z
_cell_length_a                   8.19413
_cell_length_b                   23.04179
_cell_length_c                   7.40204
_cell_angle_alpha                90.0
_cell_angle_beta                 93.8243
_cell_angle_gamma                90.0
loop_
_atom_site_label
_atom_site_type_symbol
_atom_site_fract_x
_atom_site_fract_y
_atom_site_fract_z
     1  C          0.70554000       0.16386110       0.08084000
     2  C          0.29446000       0.66386110       0.41916000
     3  C          0.29446000       0.83613890       0.91916000
     4  C          0.70554000       0.33613890       0.58084000
     5  H          0.59430000       0.15070000       0.06580000
     6  H          0.40570000       0.65070000       0.43420000
     7  H          0.40570000       0.84930000       0.93420000
     8  H          0.59430000       0.34930000       0.56580000
     9  H          0.74480000       0.15960000       0.20520000
    10  H          0.25520000       0.65960000       0.29480000
    11  H          0.25520000       0.84040000       0.79480000
    12  H          0.74480000       0.34040000       0.70520000
    13  H          0.77220000       0.14120000       0.00560000
    14  H          0.22780000       0.64120000       0.49440000
    15  H          0.22780000       0.85880000      -0.00560000
    16  H          0.77220000       0.35880000       0.50560000
    17  C          0.71383000       0.22687110       0.02693000
    18  C          0.28617000       0.72687110       0.47307000
    19  C          0.28617000       0.77312890       0.97307000
    20  C          0.71383000       0.27312890       0.52693000
    21  C          0.86263000       0.26091100       0.08923000
    22  C          0.13737000       0.76091100       0.41077000
    23  C          0.13737000       0.73908900       0.91077000
    24  C          0.86263000       0.23908900       0.58923000
    25  C          0.85953000       0.32188100       0.11523000
    26  C          0.14047000       0.82188100       0.38477000
    27  C          0.14047000       0.67811900       0.88477000
    28  C          0.85953000       0.17811900       0.61523000
    29  C          0.71563000       0.35670110       0.08673000
    30  C          0.28437000       0.85670110       0.41327000
    31  C          0.28437000       0.64329890       0.91327000
    32  C          0.71563000       0.14329890       0.58673000
    33  H          0.61860000       0.33900000       0.04390000
    34  H          0.38140000       0.83900000       0.45610000
    35  H          0.38140000       0.66100000       0.95610000
    36  H          0.61860000       0.16100000       0.54390000
    37  C          0.71573000       0.41426110       0.11983000
    38  C          0.28427000       0.91426110       0.38017000
    39  C          0.28427000       0.58573890       0.88017000
    40  C          0.71573000       0.08573890       0.61983000
    41  H          0.61890000       0.43490000       0.09800000
    42  H          0.38110000       0.93490000       0.40200000
    43  H          0.38110000       0.56510000       0.90200000
    44  H          0.61890000       0.06510000       0.59800000
    45  C          0.85943000       0.44478100       0.18743000
    46  C          0.14057000       0.94478100       0.31257000
    47  C          0.14057000       0.55521900       0.81257000
    48  C          0.85943000       0.05521900       0.68743000
    49  C          0.86343000       0.50514110       0.22483000
    50  C          0.13657000       0.00514110       0.27517000
    51  C          0.13657000       0.49485890       0.77517000
    52  C          0.86343000      -0.00514110       0.72483000
    53  C          0.71174000       0.54122110       0.22643000
    54  C          0.28826000       0.04122110       0.27357000
    55  C          0.28826000       0.45877890       0.77357000
    56  C          0.71174000       0.95877890       0.72643000
    57  C          0.72254000       0.60568110       0.20634000
    58  C          0.27746000       0.10568110       0.29366000
    59  C          0.27746000       0.39431890       0.79366000
    60  C          0.72254000       0.89431890       0.70634000
    61  H          0.61800000       0.62070000       0.16230000
    62  H          0.38200000       0.12070000       0.33770000
    63  H          0.38200000       0.37930000       0.83770000
    64  H          0.61800000       0.87930000       0.66230000
    65  H          0.80270000       0.61500000       0.12200000
    66  H          0.19730000       0.11500000       0.37800000
    67  H          0.19730000       0.38500000       0.87800000
    68  H          0.80270000       0.88500000       0.62200000
    69  H          0.75380000       0.62280000       0.32170000
    70  H          0.24620000       0.12280000       0.17830000
    71  H          0.24620000       0.37720000       0.67830000
    72  H          0.75380000       0.87720000       0.82170000
    73  C          0.00633000       0.35072100       0.17753000
    74  C         -0.00633000       0.85072100       0.32247000
    75  C         -0.00633000       0.64927900       0.82247000
    76  C          0.00633000       0.14927900       0.67753000
    77  C          0.15473000       0.31903110       0.20743000
    78  C          0.84527000       0.81903110       0.29257000
    79  C          0.84527000       0.68096890       0.79257000
    80  C          0.15473000       0.18096890       0.70743000
    81  C          0.15243000       0.25934120       0.17713000
    82  C          0.84757000       0.75934120       0.32287000
    83  C          0.84757000       0.74065880       0.82287000
    84  C          0.15243000       0.24065880       0.67713000
    85  H          0.24870000       0.23810000       0.19480000
    86  H          0.75130000       0.73810000       0.30520000
    87  H          0.75130000       0.76190000       0.80520000
    88  H          0.24870000       0.26190000       0.69480000
    89  C          0.00953000       0.23146110       0.12153000
    90  C         -0.00953000       0.73146110       0.37847000
    91  C         -0.00953000       0.76853890       0.87847000
    92  C          0.00953000       0.26853890       0.62153000
    93  H          0.01130000       0.19150000       0.10500000
    94  H         -0.01130000       0.69150000       0.39500000
    95  H         -0.01130000       0.80850000       0.89500000
    96  H          0.01130000       0.30850000       0.60500000
    97  C          0.30123000       0.34856120       0.26893000
    98  C          0.69877000       0.84856120       0.23107000
    99  C          0.69877000       0.65143880       0.73107000
   100  C          0.30123000       0.15143880       0.76893000
   101  H          0.39740000       0.32750000       0.29020000
   102  H          0.60260000       0.82750000       0.20980000
   103  H          0.60260000       0.67250000       0.70980000
   104  H          0.39740000       0.17250000       0.79020000
   105  C          0.30253000       0.40612120       0.29653000
   106  C          0.69747000       0.90612120       0.20347000
   107  C          0.69747000       0.59387880       0.70347000
   108  C          0.30253000       0.09387880       0.79653000
   109  H          0.40000000       0.42430000       0.33460000
   110  H          0.60000000       0.92430000       0.16540000
   111  H          0.60000000       0.57570000       0.66540000
   112  H          0.40000000       0.07570000       0.83460000
   113  C          0.15653000       0.44000110       0.26833000
   114  C          0.84347000       0.94000110       0.23167000
   115  C          0.84347000       0.55999890       0.73167000
   116  C          0.15653000       0.05999890       0.76833000
   117  C          0.00703000       0.41207100       0.21073000
   118  C         -0.00703000       0.91207100       0.28927000
   119  C         -0.00703000       0.58792900       0.78927000
   120  C          0.00703000       0.08792900       0.71073000
   121  C          0.01313000       0.53121120       0.27373000
   122  C         -0.01313000       0.03121120       0.22627000
   123  C         -0.01313000       0.46878880       0.72627000
   124  C          0.01313000       0.96878880       0.77373000
   125  H          0.01650000       0.57110000       0.29240000
   126  H         -0.01650000       0.07110000       0.20760000
   127  H         -0.01650000       0.42890000       0.70760000
   128  H          0.01650000       0.92890000       0.79240000
   129  C          0.15673000       0.49989120       0.29533000
   130  C          0.84327000      -0.00010880       0.20467000
   131  C          0.84327000       0.50010880       0.70467000
   132  C          0.15673000       0.00010880       0.79533000
   133  H          0.25430000       0.51890000       0.32810000
   134  H          0.74570000       0.01890000       0.17190000
   135  H          0.74570000       0.48110000       0.67190000
   136  H          0.25430000       0.98110000       0.82810000
   137  O          0.60212000       0.24798800       0.93237000
   138  O          0.39788000       0.74798800       0.56763000
   139  O          0.39788000       0.75201200       0.06763000
   140  O          0.60212000       0.25201200       0.43237000
   141  O          0.58043000       0.51984900       0.25504000
   142  O          0.41957000       0.01984900       0.24496000
   143  O          0.41957000       0.48015100       0.74496000
   144  O          0.58043000       0.98015100       0.75504000
