data_EFOPAS02
_symmetry_space_group_name_H-M    'P1'
_symmetry_Int_Tables_number       1
loop_
_symmetry_equiv_pos_site_id
_symmetry_equiv_pos_as_xyz
1 x,y,z
_cell_length_a                   4.691759
_cell_length_b                   35.55465
_cell_length_c                   16.23263
_cell_angle_alpha                90.0
_cell_angle_beta                 90.0
_cell_angle_gamma                90.0
loop_
_atom_site_label
_atom_site_type_symbol
_atom_site_fract_x
_atom_site_fract_y
_atom_site_fract_z
     1  O          0.37533000       0.07922300       0.19242800
     2  O          0.62467000       0.92077700       0.19242800
     3  O          0.87467000       0.32922300       0.44242800
     4  O          0.62533000       0.17077700       0.44242800
     5  O          0.37533000       0.57922300       0.69242800
     6  O          0.62467000       0.42077700       0.69242800
     7  O          0.87467000       0.82922300       0.94242800
     8  O          0.62533000       0.67077700       0.94242800
     9  O          0.87533000       0.07922300       0.69242800
    10  O          0.12467000       0.92077700       0.69242800
    11  O          0.37467000       0.32922300       0.94242800
    12  O          0.12533000       0.17077700       0.94242800
    13  O          0.87533000       0.57922300       0.19242800
    14  O          0.12467000       0.42077700       0.19242800
    15  O          0.37467000       0.82922300       0.44242800
    16  O          0.12533000       0.67077700       0.44242800
    17  C          0.39602000       0.06147300       0.33406800
    18  C          0.60398000       0.93852700       0.33406800
    19  C          0.85398000       0.31147300       0.58406800
    20  C          0.64602000       0.18852700       0.58406800
    21  C          0.39602000       0.56147300       0.83406800
    22  C          0.60398000       0.43852700       0.83406800
    23  C          0.85398000       0.81147300       0.08406800
    24  C          0.64602000       0.68852700       0.08406800
    25  C          0.89602000       0.06147300       0.83406800
    26  C          0.10398000       0.93852700       0.83406800
    27  C          0.35398000       0.31147300       0.08406800
    28  C          0.14602000       0.18852700       0.08406800
    29  C          0.89602000       0.56147300       0.33406800
    30  C          0.10398000       0.43852700       0.33406800
    31  C          0.35398000       0.81147300       0.58406800
    32  C          0.14602000       0.68852700       0.58406800
    33  C          0.19932000       0.03095300       0.33157700
    34  C          0.80068000       0.96904700       0.33157700
    35  C          0.05068000       0.28095300       0.58157700
    36  C          0.44932000       0.21904700       0.58157700
    37  C          0.19932000       0.53095300       0.83157700
    38  C          0.80068000       0.46904700       0.83157700
    39  C          0.05068000       0.78095300       0.08157700
    40  C          0.44932000       0.71904700       0.08157700
    41  C          0.69932000       0.03095300       0.83157700
    42  C          0.30068000       0.96904700       0.83157700
    43  C          0.55068000       0.28095300       0.08157700
    44  C          0.94932000       0.21904700       0.08157700
    45  C          0.69932000       0.53095300       0.33157700
    46  C          0.30068000       0.46904700       0.33157700
    47  C          0.55068000       0.78095300       0.58157700
    48  C          0.94932000       0.71904700       0.58157700
    49  C          0.09363000       0.01474300       0.25673700
    50  C          0.90637000       0.98525700       0.25673700
    51  C          0.15637000       0.26474300       0.50673700
    52  C          0.34363000       0.23525700       0.50673700
    53  C          0.09363000       0.51474300       0.75673700
    54  C          0.90637000       0.48525700       0.75673700
    55  C          0.15637000       0.76474300       0.00673700
    56  C          0.34363000       0.73525700       0.00673700
    57  C          0.59363000       0.01474300       0.75673700
    58  C          0.40637000       0.98525700       0.75673700
    59  C          0.65637000       0.26474300       0.00673700
    60  C          0.84363000       0.23525700       0.00673700
    61  C          0.59363000       0.51474300       0.25673700
    62  C          0.40637000       0.48525700       0.25673700
    63  C          0.65637000       0.76474300       0.50673700
    64  C          0.84363000       0.73525700       0.50673700
    65  H          0.15410000       0.02460000       0.20660000
    66  H          0.84590000       0.97540000       0.20660000
    67  H          0.09590000       0.27460000       0.45660000
    68  H          0.40410000       0.22540000       0.45660000
    69  H          0.15410000       0.52460000       0.70660000
    70  H          0.84590000       0.47540000       0.70660000
    71  H          0.09590000       0.77460000       0.95660000
    72  H          0.40410000       0.72540000       0.95660000
    73  H          0.65410000       0.02460000       0.70660000
    74  H          0.34590000       0.97540000       0.70660000
    75  H          0.59590000       0.27460000       0.95660000
    76  H          0.90410000       0.22540000       0.95660000
    77  H          0.65410000       0.52460000       0.20660000
    78  H          0.34590000       0.47540000       0.20660000
    79  H          0.59590000       0.77460000       0.45660000
    80  H          0.90410000       0.72540000       0.45660000
    81  C          0.09613000       0.01401400       0.55955800
    82  C          0.90387000       0.98598600       0.55955800
    83  C          0.15387000       0.26401400       0.80955800
    84  C          0.34613000       0.23598600       0.80955800
    85  C          0.09613000       0.51401400       0.05955800
    86  C          0.90387000       0.48598600       0.05955800
    87  C          0.15387000       0.76401400       0.30955800
    88  C          0.34613000       0.73598600       0.30955800
    89  C          0.59613000       0.01401400       0.05955800
    90  C          0.40387000       0.98598600       0.05955800
    91  C          0.65387000       0.26401400       0.30955800
    92  C          0.84613000       0.23598600       0.30955800
    93  C          0.59613000       0.51401400       0.55955800
    94  C          0.40387000       0.48598600       0.55955800
    95  C          0.65387000       0.76401400       0.80955800
    96  C          0.84613000       0.73598600       0.80955800
    97  H          0.16200000       0.02350000       0.60940000
    98  H          0.83800000       0.97650000       0.60940000
    99  H          0.08800000       0.27350000       0.85940000
   100  H          0.41200000       0.22650000       0.85940000
   101  H          0.16200000       0.52350000       0.10940000
   102  H          0.83800000       0.47650000       0.10940000
   103  H          0.08800000       0.77350000       0.35940000
   104  H          0.41200000       0.72650000       0.35940000
   105  H          0.66200000       0.02350000       0.10940000
   106  H          0.33800000       0.97650000       0.10940000
   107  H          0.58800000       0.27350000       0.35940000
   108  H          0.91200000       0.22650000       0.35940000
   109  H          0.66200000       0.52350000       0.60940000
   110  H          0.33800000       0.47650000       0.60940000
   111  H          0.58800000       0.77350000       0.85940000
   112  H          0.91200000       0.72650000       0.85940000
   113  C          0.20113000       0.02945300       0.48357700
   114  C          0.79887000       0.97054700       0.48357700
   115  C          0.04887000       0.27945300       0.73357700
   116  C          0.45113000       0.22054700       0.73357700
   117  C          0.20113000       0.52945300       0.98357700
   118  C          0.79887000       0.47054700       0.98357700
   119  C          0.04887000       0.77945300       0.23357700
   120  C          0.45113000       0.72054700       0.23357700
   121  C          0.70113000       0.02945300       0.98357700
   122  C          0.29887000       0.97054700       0.98357700
   123  C          0.54887000       0.27945300       0.23357700
   124  C          0.95113000       0.22054700       0.23357700
   125  C          0.70113000       0.52945300       0.48357700
   126  C          0.29887000       0.47054700       0.48357700
   127  C          0.54887000       0.77945300       0.73357700
   128  C          0.95113000       0.72054700       0.73357700
   129  C          0.40183000       0.05854400       0.48390900
   130  C          0.59817000       0.94145600       0.48390900
   131  C          0.84817000       0.30854400       0.73390900
   132  C          0.65183000       0.19145600       0.73390900
   133  C          0.40183000       0.55854400       0.98390900
   134  C          0.59817000       0.44145600       0.98390900
   135  C          0.84817000       0.80854400       0.23390900
   136  C          0.65183000       0.69145600       0.23390900
   137  C          0.90183000       0.05854400       0.98390900
   138  C          0.09817000       0.94145600       0.98390900
   139  C          0.34817000       0.30854400       0.23390900
   140  C          0.15183000       0.19145600       0.23390900
   141  C          0.90183000       0.55854400       0.48390900
   142  C          0.09817000       0.44145600       0.48390900
   143  C          0.34817000       0.80854400       0.73390900
   144  C          0.15183000       0.69145600       0.73390900
   145  H          0.47240000       0.06750000       0.53370000
   146  H          0.52760000       0.93250000       0.53370000
   147  H          0.77760000       0.31750000       0.78370000
   148  H          0.72240000       0.18250000       0.78370000
   149  H          0.47240000       0.56750000       0.03370000
   150  H          0.52760000       0.43250000       0.03370000
   151  H          0.77760000       0.81750000       0.28370000
   152  H          0.72240000       0.68250000       0.28370000
   153  H         -0.02760000       0.06750000       0.03370000
   154  H          0.02760000       0.93250000       0.03370000
   155  H          0.27760000       0.31750000       0.28370000
   156  H          0.22240000       0.18250000       0.28370000
   157  H         -0.02760000       0.56750000       0.53370000
   158  H          0.02760000       0.43250000       0.53370000
   159  H          0.27760000       0.81750000       0.78370000
   160  H          0.22240000       0.68250000       0.78370000
   161  C          0.49583000       0.07402300       0.41069900
   162  C          0.50417000       0.92597700       0.41069900
   163  C          0.75417000       0.32402300       0.66069900
   164  C          0.74583000       0.17597700       0.66069900
   165  C          0.49583000       0.57402300       0.91069900
   166  C          0.50417000       0.42597700       0.91069900
   167  C          0.75417000       0.82402300       0.16069900
   168  C          0.74583000       0.67597700       0.16069900
   169  C         -0.00417000       0.07402300       0.91069900
   170  C          0.00417000       0.92597700       0.91069900
   171  C          0.25417000       0.32402300       0.16069900
   172  C          0.24583000       0.17597700       0.16069900
   173  C         -0.00417000       0.57402300       0.41069900
   174  C          0.00417000       0.42597700       0.41069900
   175  C          0.25417000       0.82402300       0.66069900
   176  C          0.24583000       0.67597700       0.66069900
   177  H          0.62930000       0.09330000       0.41230000
   178  H          0.37070000       0.90670000       0.41230000
   179  H          0.62070000       0.34330000       0.66230000
   180  H          0.87930000       0.15670000       0.66230000
   181  H          0.62930000       0.59330000       0.91230000
   182  H          0.37070000       0.40670000       0.91230000
   183  H          0.62070000       0.84330000       0.16230000
   184  H          0.87930000       0.65670000       0.16230000
   185  H          0.12930000       0.09330000       0.91230000
   186  H          0.87070000       0.90670000       0.91230000
   187  H          0.12070000       0.34330000       0.16230000
   188  H          0.37930000       0.15670000       0.16230000
   189  H          0.12930000       0.59330000       0.41230000
   190  H          0.87070000       0.40670000       0.41230000
   191  H          0.12070000       0.84330000       0.66230000
   192  H          0.37930000       0.65670000       0.66230000
   193  C          0.10092000       0.01515300       0.40692800
   194  C          0.89908000       0.98484700       0.40692800
   195  C          0.14908000       0.26515300       0.65692800
   196  C          0.35092000       0.23484700       0.65692800
   197  C          0.10092000       0.51515300       0.90692800
   198  C          0.89908000       0.48484700       0.90692800
   199  C          0.14908000       0.76515300       0.15692800
   200  C          0.35092000       0.73484700       0.15692800
   201  C          0.60092000       0.01515300       0.90692800
   202  C          0.39908000       0.98484700       0.90692800
   203  C          0.64908000       0.26515300       0.15692800
   204  C          0.85092000       0.23484700       0.15692800
   205  C          0.60092000       0.51515300       0.40692800
   206  C          0.39908000       0.48484700       0.40692800
   207  C          0.64908000       0.76515300       0.65692800
   208  C          0.85092000       0.73484700       0.65692800
   209  C          0.49323000       0.08229300       0.25911900
   210  C          0.50677000       0.91770700       0.25911900
   211  C          0.75677000       0.33229300       0.50911900
   212  C          0.74323000       0.16770700       0.50911900
   213  C          0.49323000       0.58229300       0.75911900
   214  C          0.50677000       0.41770700       0.75911900
   215  C          0.75677000       0.83229300       0.00911900
   216  C          0.74323000       0.66770700       0.00911900
   217  C         -0.00677000       0.08229300       0.75911900
   218  C          0.00677000       0.91770700       0.75911900
   219  C          0.25677000       0.33229300       0.00911900
   220  C          0.24323000       0.16770700       0.00911900
   221  C         -0.00677000       0.58229300       0.25911900
   222  C          0.00677000       0.41770700       0.25911900
   223  C          0.25677000       0.83229300       0.50911900
   224  C          0.24323000       0.66770700       0.50911900
   225  C          0.73893000       0.10953400       0.26779120
   226  C          0.26107000       0.89046600       0.26779120
   227  C          0.51107000       0.35953400       0.51779120
   228  C         -0.01107000       0.14046600       0.51779120
   229  C          0.73893000       0.60953400       0.76779120
   230  C          0.26107000       0.39046600       0.76779120
   231  C          0.51107000       0.85953400       0.01779120
   232  C         -0.01107000       0.64046600       0.01779120
   233  C          0.23893000       0.10953400       0.76779120
   234  C          0.76107000       0.89046600       0.76779120
   235  C          0.01107000       0.35953400       0.01779120
   236  C          0.48893000       0.14046600       0.01779120
   237  C          0.23893000       0.60953400       0.26779120
   238  C          0.76107000       0.39046600       0.26779120
   239  C          0.01107000       0.85953400       0.51779120
   240  C          0.48893000       0.64046600       0.51779120
   241  H          0.80640000       0.11650000       0.21410000
   242  H          0.19360000       0.88350000       0.21410000
   243  H          0.44360000       0.36650000       0.46410000
   244  H          0.05640000       0.13350000       0.46410000
   245  H          0.80640000       0.61650000       0.71410000
   246  H          0.19360000       0.38350000       0.71410000
   247  H          0.44360000       0.86650000       0.96410000
   248  H          0.05640000       0.63350000       0.96410000
   249  H          0.30640000       0.11650000       0.71410000
   250  H          0.69360000       0.88350000       0.71410000
   251  H          0.94360000       0.36650000       0.96410000
   252  H          0.55640000       0.13350000       0.96410000
   253  H          0.30640000       0.61650000       0.21410000
   254  H          0.69360000       0.38350000       0.21410000
   255  H          0.94360000       0.86650000       0.46410000
   256  H          0.55640000       0.63350000       0.46410000
   257  H          0.89040000       0.09780000       0.29810000
   258  H          0.10960000       0.90220000       0.29810000
   259  H          0.35960000       0.34780000       0.54810000
   260  H          0.14040000       0.15220000       0.54810000
   261  H          0.89040000       0.59780000       0.79810000
   262  H          0.10960000       0.40220000       0.79810000
   263  H          0.35960000       0.84780000       0.04810000
   264  H          0.14040000       0.65220000       0.04810000
   265  H          0.39040000       0.09780000       0.79810000
   266  H          0.60960000       0.90220000       0.79810000
   267  H          0.85960000       0.34780000       0.04810000
   268  H          0.64040000       0.15220000       0.04810000
   269  H          0.39040000       0.59780000       0.29810000
   270  H          0.60960000       0.40220000       0.29810000
   271  H          0.85960000       0.84780000       0.54810000
   272  H          0.64040000       0.65220000       0.54810000
   273  H          0.67580000       0.13160000       0.29670000
   274  H          0.32420000       0.86840000       0.29670000
   275  H          0.57420000       0.38160000       0.54670000
   276  H          0.92580000       0.11840000       0.54670000
   277  H          0.67580000       0.63160000       0.79670000
   278  H          0.32420000       0.36840000       0.79670000
   279  H          0.57420000       0.88160000       0.04670000
   280  H          0.92580000       0.61840000       0.04670000
   281  H          0.17580000       0.13160000       0.79670000
   282  H          0.82420000       0.86840000       0.79670000
   283  H          0.07420000       0.38160000       0.04670000
   284  H          0.42580000       0.11840000       0.04670000
   285  H          0.17580000       0.63160000       0.29670000
   286  H          0.82420000       0.36840000       0.29670000
   287  H          0.07420000       0.88160000       0.54670000
   288  H          0.42580000       0.61840000       0.54670000
