data_EFOPAS09
_symmetry_space_group_name_H-M    'P1'
_symmetry_Int_Tables_number       1
loop_
_symmetry_equiv_pos_site_id
_symmetry_equiv_pos_as_xyz
1 x,y,z
_cell_length_a                   8.2882
_cell_length_b                   21.5319
_cell_length_c                   7.2139
_cell_angle_alpha                90.0
_cell_angle_beta                 98.935
_cell_angle_gamma                90.0
loop_
_atom_site_label
_atom_site_type_symbol
_atom_site_fract_x
_atom_site_fract_y
_atom_site_fract_z
     1  O          0.07686000       0.53402000       0.78951200
     2  O          0.92314000       0.03402000       0.71048800
     3  O          0.92314000       0.46598000       0.21048800
     4  O          0.07686000       0.96598000       0.28951200
     5  O          0.06367000       0.25772000       0.35251300
     6  O          0.93633000       0.75772000       0.14748700
     7  O          0.93633000       0.74228000       0.64748700
     8  O          0.06367000       0.24228000       0.85251300
     9  C          0.33978000       0.33613000       0.53991600
    10  C          0.66022000       0.83613000       0.96008400
    11  C          0.66022000       0.66387000       0.46008400
    12  C          0.33978000       0.16387000       0.03991600
    13  C          0.49088000       0.36573000       0.60741600
    14  C          0.50912000       0.86573000       0.89258400
    15  C          0.50912000       0.63427000       0.39258400
    16  C          0.49088000       0.13427000       0.10741600
    17  C          0.19028000       0.16793000       0.49911800
    18  C          0.80972000       0.66793000       0.00088200
    19  C          0.80972000       0.83207000       0.50088200
    20  C          0.19028000       0.33207000      -0.00088200
    21  H          0.08165200       0.15116000       0.47570400
    22  H          0.91834800       0.65116000       0.02429600
    23  H          0.91834800       0.84884000       0.52429600
    24  H          0.08165200       0.34884000       0.97570400
    25  H          0.23214800       0.16484800       0.63055200
    26  H          0.76785200       0.66484800       0.86944800
    27  H          0.76785200       0.83515200       0.36944800
    28  H          0.23214800       0.33515200       0.13055200
    29  H          0.25934200       0.14495000       0.42862300
    30  H          0.74065800       0.64495000       0.07137700
    31  H          0.74065800       0.85505000       0.57137700
    32  H          0.25934200       0.35505000       0.92862300
    33  C          0.22089000       0.62873000       0.81171700
    34  C          0.77911000       0.12873000       0.68828300
    35  C          0.77911000       0.37127000       0.18828300
    36  C          0.22089000       0.87127000       0.31171700
    37  H          0.11515500       0.64757400       0.78030500
    38  H          0.88484500       0.14757400       0.71969500
    39  H          0.88484500       0.35242600       0.21969500
    40  H          0.11515500       0.85242600       0.28030500
    41  H          0.29322400       0.64536700       0.73249700
    42  H          0.70677600       0.14536700       0.76750300
    43  H          0.70677600       0.35463300       0.26750300
    44  H          0.29322400       0.85463300       0.23249700
    45  H          0.26359000       0.63724100       0.94056100
    46  H          0.73641000       0.13724100       0.55943900
    47  H          0.73641000       0.36275900       0.05943900
    48  H          0.26359000       0.86275900       0.44056100
    49  C          0.63998000       0.33403000       0.61051500
    50  C          0.36002000       0.83403000       0.88948500
    51  C          0.36002000       0.66597000       0.38948500
    52  C          0.63998000       0.16597000       0.11051500
    53  C          0.49468000       0.42853000       0.67221500
    54  C          0.50532000       0.92853000       0.82778500
    55  C          0.50532000       0.57147000       0.32778500
    56  C          0.49468000       0.07147000       0.17221500
    57  C          0.35508000       0.52393000       0.74981700
    58  C          0.64492000       0.02393000       0.75018300
    59  C          0.64492000       0.47607000       0.25018300
    60  C          0.35508000       0.97607000       0.24981700
    61  C          0.20598000       0.56004000       0.78301700
    62  C          0.79402000       0.06004000       0.71698300
    63  C          0.79402000       0.43996000       0.21698300
    64  C          0.20598000       0.93996000       0.28301700
    65  C          0.19417000       0.37393000       0.52871500
    66  C          0.80583000       0.87393000       0.97128500
    67  C          0.80583000       0.62607000       0.47128500
    68  C          0.19417000       0.12607000       0.02871500
    69  H          0.09434800       0.35702900       0.47560600
    70  H          0.90565200       0.85702900       0.02439400
    71  H          0.90565200       0.64297100       0.52439400
    72  H          0.09434800       0.14297100       0.97560600
    73  C          0.34547000       0.46273000       0.67471600
    74  C          0.65453000       0.96273000       0.82528400
    75  C          0.65453000       0.53727000       0.32528400
    76  C          0.34547000       0.03727000       0.17471600
    77  C          0.48999000       0.24223000       0.50331700
    78  C          0.51001000       0.74223000      -0.00331700
    79  C          0.51001000       0.75777000       0.49668300
    80  C          0.48999000       0.25777000       0.00331700
    81  H          0.49069000       0.19983700       0.47847200
    82  H          0.50931000       0.69983700       0.02152800
    83  H          0.50931000       0.80016300       0.52152800
    84  H          0.49069000       0.30016300       0.97847200
    85  C          0.64808000       0.45834000       0.73611800
    86  C          0.35192000       0.95834000       0.76388200
    87  C          0.35192000       0.54166000       0.26388200
    88  C          0.64808000       0.04166000       0.23611800
    89  C          0.33888000       0.27243000       0.49011600
    90  C          0.66112000       0.77243000       0.00988400
    91  C          0.66112000       0.72757000       0.50988400
    92  C          0.33888000       0.22757000      -0.00988400
    93  C          0.18641000       0.23584000       0.43961900
    94  C          0.81359000       0.73584000       0.06038100
    95  C          0.81359000       0.76416000       0.56038100
    96  C          0.18641000       0.26416000       0.93961900
    97  C          0.63629000       0.27204000       0.55091600
    98  C          0.36371000       0.77204000       0.94908400
    99  C          0.36371000       0.72796000       0.44908400
   100  C          0.63629000       0.22796000       0.05091600
   101  H          0.73327700       0.25105300       0.54366700
   102  H          0.26672300       0.75105300       0.95633300
   103  H          0.26672300       0.74894700       0.45633300
   104  H          0.73327700       0.24894700       0.04366700
   105  C          0.19839000       0.43354000       0.59341700
   106  C          0.80161000       0.93354000       0.90658300
   107  C          0.80161000       0.56646000       0.40658300
   108  C          0.19839000       0.06646000       0.09341700
   109  H          0.10111300       0.45572900       0.58371400
   110  H          0.89888700       0.95572900       0.91628600
   111  H          0.89888700       0.54427100       0.41628600
   112  H          0.10111300       0.04427100       0.08371400
   113  C          0.65239000       0.51914000       0.80561900
   114  C          0.34761000       0.01914000       0.69438100
   115  C          0.34761000       0.48086000       0.19438100
   116  C          0.65239000       0.98086000       0.30561900
   117  H          0.75157900       0.53802000       0.85057400
   118  H          0.24842100       0.03802000       0.64942600
   119  H          0.24842100       0.46198000       0.14942600
   120  H          0.75157900       0.96198000       0.35057400
   121  C          0.79578000       0.42263000       0.73151600
   122  C          0.20422000       0.92263000       0.76848400
   123  C          0.20422000       0.57737000       0.26848400
   124  C          0.79578000       0.07737000       0.23151600
   125  H          0.89637600       0.44151900       0.76914800
   126  H          0.10362400       0.94151900       0.73085200
   127  H          0.10362400       0.55848100       0.23085200
   128  H          0.89637600       0.05848100       0.26914800
   129  C          0.50458000       0.55144000       0.80661600
   130  C          0.49542000       0.05144000       0.69338400
   131  C          0.49542000       0.44856000       0.19338400
   132  C          0.50458000       0.94856000       0.30661600
   133  H          0.50808100       0.59245400       0.84690800
   134  H          0.49191900       0.09245400       0.65309200
   135  H          0.49191900       0.40754600       0.15309200
   136  H          0.50808100       0.90754600       0.34690800
   137  C          0.79198000       0.36484000       0.67621700
   138  C          0.20802000       0.86484000       0.82378300
   139  C          0.20802000       0.63516000       0.32378300
   140  C          0.79198000       0.13516000       0.17621700
   141  H          0.88941300       0.34315900       0.67936400
   142  H          0.11058700       0.84315900       0.82063600
   143  H          0.11058700       0.65684100       0.32063600
   144  H          0.88941300       0.15684100       0.17936400
