data_EFOPAS11
_symmetry_space_group_name_H-M    'P1'
_symmetry_Int_Tables_number       1
loop_
_symmetry_equiv_pos_site_id
_symmetry_equiv_pos_as_xyz
1 x,y,z
_cell_length_a                   8.0723
_cell_length_b                   22.71412
_cell_length_c                   7.10611
_cell_angle_alpha                90.0
_cell_angle_beta                 92.987
_cell_angle_gamma                90.0
loop_
_atom_site_label
_atom_site_type_symbol
_atom_site_fract_x
_atom_site_fract_y
_atom_site_fract_z
     1  O          0.44939000       0.76684000       0.79020000
     2  O          0.55061000       0.26684000       0.70980000
     3  O          0.55061000       0.23316000       0.20980000
     4  O          0.44939000       0.73316000       0.29020000
     5  O          0.44249000       0.48214000       0.76820000
     6  O          0.55751000       0.98214000       0.73180000
     7  O          0.55751000       0.51786000       0.23180000
     8  O          0.44249000       0.01786000       0.26820000
     9  C          0.30601500       0.65586000       0.85440000
    10  C          0.69398500       0.15586000       0.64560000
    11  C          0.69398500       0.34414000       0.14560000
    12  C          0.30601500       0.84414000       0.35440000
    13  H          0.40300000       0.67570000       0.89080000
    14  H          0.59700000       0.17570000       0.60920000
    15  H          0.59700000       0.32430000       0.10920000
    16  H          0.40300000       0.82430000       0.39080000
    17  C          0.15751500       0.75017000       0.77930000
    18  C          0.84248500       0.25017000       0.72070000
    19  C          0.84248500       0.24983000       0.22070000
    20  C          0.15751500       0.74983000       0.27930000
    21  C          0.00791500       0.77737000       0.74140000
    22  C         -0.00791500       0.27737000       0.75860000
    23  C         -0.00791500       0.22263000       0.25860000
    24  C          0.00791500       0.72263000       0.24140000
    25  H          0.00860000       0.81820000       0.74130000
    26  H         -0.00860000       0.31820000       0.75870000
    27  H         -0.00860000       0.18180000       0.25870000
    28  H          0.00860000       0.68180000       0.24130000
    29  C          0.86238400       0.75167000       0.70540000
    30  C          0.13761600       0.25167000       0.79460000
    31  C          0.13761600       0.24833000       0.29460000
    32  C          0.86238400       0.74833000       0.20540000
    33  H          0.76580000       0.77300000       0.67850000
    34  H          0.23420000       0.27300000       0.82150000
    35  H          0.23420000       0.22700000       0.32150000
    36  H          0.76580000       0.72700000       0.17850000
    37  C          0.86388500       0.69038000       0.71030000
    38  C          0.13611500       0.19038000       0.78970000
    39  C          0.13611500       0.30962000       0.28970000
    40  C          0.86388500       0.80962000       0.21030000
    41  C          0.00901400       0.65566000       0.75030000
    42  C         -0.00901400       0.15566000       0.74970000
    43  C         -0.00901400       0.34434000       0.24970000
    44  C          0.00901400       0.84434000       0.25030000
    45  C          0.15761500       0.68898000       0.79630000
    46  C          0.84238500       0.18898000       0.70370000
    47  C          0.84238500       0.31102000       0.20370000
    48  C          0.15761500       0.81102000       0.29630000
    49  C          0.71058400       0.65716000       0.66540000
    50  C          0.28941600       0.15716000       0.83460000
    51  C          0.28941600       0.34284000       0.33460000
    52  C          0.71058400       0.84284000       0.16540000
    53  H          0.61220000       0.67760000       0.64020000
    54  H          0.38780000       0.17760000       0.85980000
    55  H          0.38780000       0.32240000       0.35980000
    56  H          0.61220000       0.82240000       0.14020000
    57  C          0.31481700       0.78868000       0.81740000
    58  C          0.68518300       0.28868000       0.68260000
    59  C          0.68518300       0.21132000       0.18260000
    60  C          0.31481700       0.71132000       0.31740000
    61  C          0.30451900       0.85176000       0.84740000
    62  C          0.69548100       0.35176000       0.65260000
    63  C          0.69548100       0.14824000       0.15260000
    64  C          0.30451900       0.64824000       0.34740000
    65  H          0.41260000       0.86680000       0.88300000
    66  H          0.58740000       0.36680000       0.61700000
    67  H          0.58740000       0.13320000       0.11700000
    68  H          0.41260000       0.63320000       0.38300000
    69  H          0.22990000       0.85970000       0.94430000
    70  H          0.77010000       0.35970000       0.55570000
    71  H          0.77010000       0.14030000       0.05570000
    72  H          0.22990000       0.64030000       0.44430000
    73  H          0.26430000       0.87040000       0.73190000
    74  H          0.73570000       0.37040000       0.76810000
    75  H          0.73570000       0.12960000       0.26810000
    76  H          0.26430000       0.62960000       0.23190000
    77  C          0.30411600       0.59546000       0.85640000
    78  C          0.69588400       0.09546000       0.64360000
    79  C          0.69588400       0.40454000       0.14360000
    80  C          0.30411600       0.90454000       0.35640000
    81  H          0.39890000       0.57530000       0.89940000
    82  H          0.60110000       0.07530000       0.60060000
    83  H          0.60110000       0.42470000       0.10060000
    84  H          0.39890000       0.92470000       0.39940000
    85  C          0.16021300       0.56247000       0.79330000
    86  C          0.83978700       0.06247000       0.70670000
    87  C          0.83978700       0.43753000       0.20670000
    88  C          0.16021300       0.93753000       0.29330000
    89  C          0.00851500       0.59126000       0.75530000
    90  C         -0.00851500       0.09126000       0.74470000
    91  C         -0.00851500       0.40874000       0.24470000
    92  C          0.00851500       0.90874000       0.25530000
    93  C          0.85508600       0.56297000       0.71030000
    94  C          0.14491400       0.06297000       0.78970000
    95  C          0.14491400       0.43703000       0.28970000
    96  C          0.85508600       0.93703000       0.21030000
    97  C          0.85428500       0.50147000       0.70640000
    98  C          0.14571500       0.00147000       0.79360000
    99  C          0.14571500       0.49853000       0.29360000
   100  C          0.85428500      -0.00147000       0.20640000
   101  H          0.75630000       0.48140000       0.67430000
   102  H          0.24370000       0.98140000       0.82570000
   103  H          0.24370000       0.51860000       0.32570000
   104  H          0.75630000       0.01860000       0.17430000
   105  C          0.00061400       0.46987000       0.74830000
   106  C         -0.00061400       0.96987000       0.75170000
   107  C         -0.00061400       0.53013000       0.25170000
   108  C          0.00061400       0.03013000       0.24830000
   109  H         -0.00320000       0.42900000       0.75270000
   110  H          0.00320000       0.92900000       0.74730000
   111  H          0.00320000       0.57100000       0.24730000
   112  H         -0.00320000       0.07100000       0.25270000
   113  C          0.15051500       0.49837000       0.78340000
   114  C          0.84948500      -0.00163000       0.71660000
   115  C          0.84948500       0.50163000       0.21660000
   116  C          0.15051500       0.00163000       0.28340000
   117  C          0.70838400       0.59906000       0.65940000
   118  C          0.29161600       0.09906000       0.84060000
   119  C          0.29161600       0.40094000       0.34060000
   120  C          0.70838400       0.90094000       0.15940000
   121  H          0.61000000       0.58010000       0.62170000
   122  H          0.39000000       0.08010000       0.87830000
   123  H          0.39000000       0.41990000       0.37830000
   124  H          0.61000000       0.91990000       0.12170000
   125  C          0.30531600       0.46186000       0.79040000
   126  C          0.69468400       0.96186000       0.70960000
   127  C          0.69468400       0.53814000       0.20960000
   128  C          0.30531600       0.03814000       0.29040000
   129  C          0.28831800       0.39685000       0.84640000
   130  C          0.71168200       0.89685000       0.65360000
   131  C          0.71168200       0.60315000       0.15360000
   132  C          0.28831800       0.10315000       0.34640000
   133  H          0.25400000       0.37410000       0.73650000
   134  H          0.74600000       0.87410000       0.76350000
   135  H          0.74600000       0.62590000       0.26350000
   136  H          0.25400000       0.12590000       0.23650000
   137  H          0.20690000       0.39320000       0.93890000
   138  H          0.79310000       0.89320000       0.56110000
   139  H          0.79310000       0.60680000       0.06110000
   140  H          0.20690000       0.10680000       0.43890000
   141  H          0.39320000       0.38250000       0.89650000
   142  H          0.60680000       0.88250000       0.60350000
   143  H          0.60680000       0.61750000       0.10350000
   144  H          0.39320000       0.11750000       0.39650000
