data_EFOZAB01
_symmetry_space_group_name_H-M    'P1'
_symmetry_Int_Tables_number       1
loop_
_symmetry_equiv_pos_site_id
_symmetry_equiv_pos_as_xyz
1 x,y,z
_cell_length_a                   15.94237
_cell_length_b                   5.09843
_cell_length_c                   10.55345
_cell_angle_alpha                90.0
_cell_angle_beta                 110.5702
_cell_angle_gamma                90.0
loop_
_atom_site_label
_atom_site_type_symbol
_atom_site_fract_x
_atom_site_fract_y
_atom_site_fract_z
     1  O          0.76305800       0.55263000       0.56200110
     2  O          0.76305800       0.44737000       0.06200110
     3  O          0.26305800       0.05263000       0.56200110
     4  O          0.26305800       0.94737000       0.06200110
     5  C          0.68332110       0.48654000       0.49837160
     6  C          0.68332110       0.51346000      -0.00162840
     7  C          0.18332110      -0.01346000       0.49837160
     8  C          0.18332110       0.01346000      -0.00162840
     9  N          0.64621110       0.28304000       0.53835170
    10  N          0.64621110       0.71696000       0.03835170
    11  N          0.14621110       0.78304000       0.53835170
    12  N          0.14621110       0.21696000       0.03835170
    13  H          0.67690000       0.19450000       0.60880000
    14  H          0.67690000       0.80550000       0.10880000
    15  H          0.17690000       0.69450000       0.60880000
    16  H          0.17690000       0.30550000       0.10880000
    17  H          0.59160000       0.24030000       0.49370000
    18  H          0.59160000       0.75970000      -0.00630000
    19  H          0.09160000       0.74030000       0.49370000
    20  H          0.09160000       0.25970000      -0.00630000
    21  N          0.63236120       0.61854000       0.38989180
    22  N          0.63236120       0.38146000       0.88989180
    23  N          0.13236120       0.11854000       0.38989180
    24  N          0.13236120       0.88146000       0.88989180
    25  H          0.65380000       0.75220000       0.36190000
    26  H          0.65380000       0.24780000       0.86190000
    27  H          0.15380000       0.25220000       0.36190000
    28  H          0.15380000       0.74780000       0.86190000
    29  H          0.57800000       0.57010000       0.34770000
    30  H          0.57800000       0.42990000       0.84770000
    31  H          0.07800000       0.07010000       0.34770000
    32  H          0.07800000       0.92990000       0.84770000
    33  N          0.84095100      -0.00663000       0.49126140
    34  N          0.84095100       0.00663000      -0.00873860
    35  N          0.34095100       0.49337000       0.49126140
    36  N          0.34095100       0.50663000      -0.00873860
    37  H          0.81250000       0.86640000       0.51170000
    38  H          0.81250000       0.13360000       0.01170000
    39  H          0.31250000       0.36640000       0.51170000
    40  H          0.31250000       0.63360000       0.01170000
    41  C          0.80045100       0.11343000       0.36886160
    42  C          0.80045100       0.88657000       0.86886160
    43  C          0.30045100       0.61343000       0.36886160
    44  C          0.30045100       0.38657000       0.86886160
    45  O          0.72846100       0.03533000       0.28983130
    46  O          0.72846100       0.96467000       0.78983130
    47  O          0.22846100       0.53533000       0.28983130
    48  O          0.22846100       0.46467000       0.78983130
    49  N          0.84309900       0.32423000       0.33813130
    50  N          0.84309900       0.67577000       0.83813130
    51  N          0.34309900       0.82423000       0.33813130
    52  N          0.34309900       0.17577000       0.83813130
    53  H          0.81660000       0.40130000       0.26200000
    54  H          0.81660000       0.59870000       0.76200000
    55  H          0.31660000       0.90130000       0.26200000
    56  H          0.31660000       0.09870000       0.76200000
    57  C          0.92426100       0.42213000       0.41845160
    58  C          0.92426100       0.57787000       0.91845160
    59  C          0.42426100       0.92213000       0.41845160
    60  C          0.42426100       0.07787000       0.91845160
    61  O          0.95950100       0.60073000       0.37923150
    62  O          0.95950100       0.39927000       0.87923150
    63  O          0.45950100       0.10073000       0.37923150
    64  O          0.45950100       0.89927000       0.87923150
    65  C          0.96514110       0.30473000       0.55714160
    66  C          0.96514110       0.69527000       0.05714160
    67  C          0.46514110       0.80473000       0.55714160
    68  C          0.46514110       0.19527000       0.05714160
    69  H          0.02770000       0.26830000       0.57290000
    70  H          0.02770000       0.73170000       0.07290000
    71  H          0.52770000       0.76830000       0.57290000
    72  H          0.52770000       0.23170000       0.07290000
    73  H          0.96320000       0.43530000       0.62290000
    74  H          0.96320000       0.56470000       0.12290000
    75  H          0.46320000       0.93530000       0.62290000
    76  H          0.46320000       0.06470000       0.12290000
    77  C          0.92271100       0.05813000       0.58379150
    78  C          0.92271100       0.94187000       0.08379150
    79  C          0.42271100       0.55813000       0.58379150
    80  C          0.42271100       0.44187000       0.08379150
    81  O          0.95728900       0.92237000       0.68302140
    82  O          0.95728900       0.07763000       0.18302140
    83  O          0.45728900       0.42237000       0.68302140
    84  O          0.45728900       0.57763000       0.18302140
