data_EFOZAB
_symmetry_space_group_name_H-M    'P1'
_symmetry_Int_Tables_number       1
loop_
_symmetry_equiv_pos_site_id
_symmetry_equiv_pos_as_xyz
1 x,y,z
_cell_length_a                   7.88573
_cell_length_b                   6.96202
_cell_length_c                   14.42836
_cell_angle_alpha                90.0
_cell_angle_beta                 98.02701
_cell_angle_gamma                90.0
loop_
_atom_site_label
_atom_site_type_symbol
_atom_site_fract_x
_atom_site_fract_y
_atom_site_fract_z
     1  O          0.29444130       0.08443150       0.95845200
     2  O          0.70555870       0.58443150       0.54154800
     3  O          0.70555870       0.91556850       0.04154800
     4  O          0.29444130       0.41556850       0.45845200
     5  C          0.33939190       0.23652000       0.00107110
     6  C          0.66060810       0.73652000       0.49892890
     7  C          0.66060810       0.76348000      -0.00107110
     8  C          0.33939190       0.26348000       0.50107110
     9  N          0.49808170       0.25932000       0.04500110
    10  N          0.50191830       0.75932000       0.45499890
    11  N          0.50191830       0.74068000       0.95499890
    12  N          0.49808170       0.24068000       0.54500110
    13  H          0.57180000       0.16840000       0.04440000
    14  H          0.42820000       0.66840000       0.45560000
    15  H          0.42820000       0.83160000       0.95560000
    16  H          0.57180000       0.33160000       0.54440000
    17  H          0.52690000       0.36480000       0.07400000
    18  H          0.47310000       0.86480000       0.42600000
    19  H          0.47310000       0.63520000       0.92600000
    20  H          0.52690000       0.13520000       0.57400000
    21  N          0.22878180       0.38072000       0.00349120
    22  N          0.77121820       0.88072000       0.49650880
    23  N          0.77121820       0.61928000      -0.00349120
    24  N          0.22878180       0.11928000       0.50349120
    25  H          0.12550000       0.36950000       0.97560000
    26  H          0.87450000       0.86950000       0.52440000
    27  H          0.87450000       0.63050000       0.02440000
    28  H          0.12550000       0.13050000       0.47560000
    29  H          0.26070000       0.48480000       0.03290000
    30  H          0.73930000      -0.01520000       0.46710000
    31  H          0.73930000       0.51520000       0.96710000
    32  H          0.26070000       0.01520000       0.53290000
    33  N          0.02901150       0.02606180       0.12628900
    34  N          0.97098850       0.52606180       0.37371100
    35  N          0.97098850       0.97393820       0.87371100
    36  N          0.02901150       0.47393820       0.62628900
    37  H          0.93490000       0.00850000       0.08930000
    38  H          0.06510000       0.50850000       0.41070000
    39  H          0.06510000      -0.00850000       0.91070000
    40  H          0.93490000       0.49150000       0.58930000
    41  C          0.15042180       0.88548000       0.12890110
    42  C          0.84957820       0.38548000       0.37109890
    43  C          0.84957820       0.11452000       0.87109890
    44  C          0.15042180       0.61452000       0.62890110
    45  O          0.12314140       0.73553840       0.08623900
    46  O          0.87685860       0.23553840       0.41376100
    47  O          0.87685860       0.26446160       0.91376100
    48  O          0.12314140       0.76446160       0.58623900
    49  N          0.30640150       0.92023820       0.18238900
    50  N          0.69359850       0.42023820       0.31761100
    51  N          0.69359850       0.07976180       0.81761100
    52  N          0.30640150       0.57976180       0.68238900
    53  H          0.38700000       0.83870000       0.17850000
    54  H          0.61300000       0.33870000       0.32150000
    55  H          0.61300000       0.16130000       0.82150000
    56  H          0.38700000       0.66130000       0.67850000
    57  C          0.34359180       0.07262000       0.24078110
    58  C          0.65640820       0.57262000       0.25921890
    59  C          0.65640820       0.92738000       0.75921890
    60  C          0.34359180       0.42738000       0.74078110
    61  O          0.47961140       0.08108170       0.29313900
    62  O          0.52038860       0.58108170       0.20686100
    63  O          0.52038860       0.91891830       0.70686100
    64  O          0.47961140       0.41891830       0.79313900
    65  C          0.21092000       0.22512000       0.23773120
    66  C          0.78908000       0.72512000       0.26226880
    67  C          0.78908000       0.77488000       0.76226880
    68  C          0.21092000       0.27488000       0.73773120
    69  H          0.18780000       0.24630000       0.30120000
    70  H          0.81220000       0.74630000       0.19880000
    71  H          0.81220000       0.75370000       0.69880000
    72  H          0.18780000       0.25370000       0.80120000
    73  H          0.25980000       0.34300000       0.21720000
    74  H          0.74020000       0.84300000       0.28280000
    75  H          0.74020000       0.65700000       0.78280000
    76  H          0.25980000       0.15700000       0.71720000
    77  C          0.04407190       0.19362000       0.17773110
    78  C          0.95592810       0.69362000       0.32226890
    79  C          0.95592810       0.80638000       0.82226890
    80  C          0.04407190       0.30638000       0.67773110
    81  O          0.92624840       0.30556190       0.17366900
    82  O          0.07375160       0.80556190       0.32633100
    83  O          0.07375160       0.69443810       0.82633100
    84  O          0.92624840       0.19443810       0.67366900
