data_EFOZAB02
_symmetry_space_group_name_H-M    'P1'
_symmetry_Int_Tables_number       1
loop_
_symmetry_equiv_pos_site_id
_symmetry_equiv_pos_as_xyz
1 x,y,z
_cell_length_a                   8.15884
_cell_length_b                   9.11174
_cell_length_c                   10.92685
_cell_angle_alpha                100.2482
_cell_angle_beta                 91.5152
_cell_angle_gamma                99.1922
loop_
_atom_site_label
_atom_site_type_symbol
_atom_site_fract_x
_atom_site_fract_y
_atom_site_fract_z
     1  N          0.78132000       0.04121190       0.52443150
     2  N          0.21868000       0.95878810       0.47556850
     3  H          0.76090000       0.02120000       0.59710000
     4  H          0.23910000       0.97880000       0.40290000
     5  C          0.68143000       0.95658000       0.42570180
     6  C          0.31857000       0.04342000       0.57429820
     7  O          0.57492000       0.85287830       0.44075130
     8  O          0.42508000       0.14712170       0.55924870
     9  N          0.70882000      -0.00682000       0.31096160
    10  N          0.29118000       0.00682000       0.68903840
    11  H          0.64720000       0.93920000       0.24890000
    12  H          0.35280000       0.06080000       0.75110000
    13  C          0.82633000       0.10872000       0.28616190
    14  C          0.17367000       0.89128000       0.71383810
    15  O          0.84022000       0.13312000       0.18121140
    16  O          0.15978000       0.86688000       0.81878860
    17  C          0.93433000       0.19792000       0.39424180
    18  C          0.06567000       0.80208000       0.60575820
    19  H          0.04900000       0.19350000       0.37480000
    20  H          0.95100000       0.80650000       0.62520000
    21  H          0.91970000       0.30260000       0.40200000
    22  H          0.08030000       0.69740000       0.59800000
    23  C          0.90962000       0.15372000       0.51749190
    24  C          0.09038000       0.84628000       0.48250810
    25  O         -0.00053810       0.21308180       0.60997140
    26  O          0.00053810       0.78691820       0.39002860
    27  N          0.68212000       0.42592190       0.96006150
    28  N          0.31788000       0.57407810       0.03993850
    29  H          0.65490000       0.41130000       0.03300000
    30  H          0.34510000       0.58870000       0.96700000
    31  C          0.59792000       0.32922000       0.86060180
    32  C          0.40208000       0.67078000       0.13939820
    33  O          0.48602000       0.22890180       0.87468140
    34  O          0.51398000       0.77109820       0.12531860
    35  N          0.64442000       0.34856190       0.74367150
    36  N          0.35558000       0.65143810       0.25632850
    37  H          0.59770000       0.28210000       0.68150000
    38  H          0.40230000       0.71790000       0.31850000
    39  C          0.75863000       0.46462000       0.71804190
    40  C          0.24137000       0.53538000       0.28195810
    41  O          0.78092000       0.47970190       0.61115130
    42  O          0.21908000       0.52029810       0.38884870
    43  C          0.85233000       0.56793000       0.82745190
    44  C          0.14767000       0.43207000       0.17254810
    45  H          0.84060000       0.67070000       0.82120000
    46  H          0.15940000       0.32930000       0.17880000
    47  H          0.96920000       0.56080000       0.82080000
    48  H          0.03080000       0.43920000       0.17920000
    49  C          0.80533000       0.54342000       0.95412190
    50  C          0.19467000       0.45658000       0.04587810
    51  O          0.87342000       0.62294180       0.04861140
    52  O          0.12658000       0.37705820       0.95138860
    53  O          0.45510190       0.62811170       0.82492130
    54  O          0.54489810       0.37188830       0.17507870
    55  C          0.38973000       0.58972000       0.71742190
    56  C          0.61027000       0.41028000       0.28257810
    57  N          0.44232000       0.66162000       0.62667170
    58  N          0.55768000       0.33838000       0.37332830
    59  H          0.52320000       0.73660000       0.64160000
    60  H          0.47680000       0.26340000       0.35840000
    61  H          0.39550000       0.63330000       0.55300000
    62  H          0.60450000       0.36670000       0.44700000
    63  N          0.26153000       0.47532000       0.68972000
    64  N          0.73847000       0.52468000       0.31028000
    65  H          0.22310000       0.42720000       0.74660000
    66  H          0.77690000       0.57280000       0.25340000
    67  H          0.21750000       0.44990000       0.61490000
    68  H          0.78250000       0.55010000       0.38510000
    69  O          0.72452000       0.92456820       0.73102130
    70  O          0.27548000       0.07543180       0.26897870
    71  C          0.75953000      -0.01592000       0.84199190
    72  C          0.24047000       0.01592000       0.15800810
    73  N          0.87213000       0.10932000       0.87352000
    74  N          0.12787000       0.89068000       0.12648000
    75  H          0.92210000       0.15030000       0.81660000
    76  H          0.07790000       0.84970000       0.18340000
    77  H          0.89500000       0.14910000       0.95070000
    78  H          0.10500000       0.85090000       0.04930000
    79  N          0.68773000       0.92318000       0.93195170
    80  N          0.31227000       0.07682000       0.06804830
    81  H          0.61580000       0.84150000       0.91410000
    82  H          0.38420000       0.15850000       0.08590000
    83  H          0.71270000       0.96520000       0.00850000
    84  H          0.28730000       0.03480000      -0.00850000
