data_EFUMAU
_symmetry_space_group_name_H-M    'P1'
_symmetry_Int_Tables_number       1
loop_
_symmetry_equiv_pos_site_id
_symmetry_equiv_pos_as_xyz
1 x,y,z
_cell_length_a                   8.67538
_cell_length_b                   5.20785
_cell_length_c                   10.71081
_cell_angle_alpha                90.0
_cell_angle_beta                 110.4513
_cell_angle_gamma                90.0
loop_
_atom_site_label
_atom_site_type_symbol
_atom_site_fract_x
_atom_site_fract_y
_atom_site_fract_z
     1  N          0.10684130       0.52322000       0.30411120
     2  N          0.89315870       0.02322000       0.19588880
     3  N          0.89315870       0.47678000       0.69588880
     4  N          0.10684130      -0.02322000       0.80411120
     5  H          0.03820000       0.41130000       0.26261700
     6  H          0.96180000       0.91130000       0.23738300
     7  H          0.96180000       0.58870000       0.73738300
     8  H          0.03820000       0.08870000       0.76261700
     9  C          0.18779170       0.43083000       0.43977130
    10  C          0.81220830       0.93083000       0.06022870
    11  C          0.81220830       0.56917000       0.56022870
    12  C          0.18779170       0.06917000       0.93977130
    13  H          0.10610000       0.35510000       0.47450000
    14  H          0.89390000       0.85510000       0.02550000
    15  H          0.89390000       0.64490000       0.52550000
    16  H          0.10610000       0.14490000       0.97450000
    17  H          0.24410000       0.57410000       0.49890000
    18  H          0.75590000       0.07410000       0.00110000
    19  H          0.75590000       0.42590000       0.50110000
    20  H          0.24410000       0.92590000      -0.00110000
    21  C          0.31260160       0.22783000       0.43463130
    22  C          0.68739840       0.72783000       0.06536870
    23  C          0.68739840       0.77217000       0.56536870
    24  C          0.31260160       0.27217000       0.93463130
    25  H          0.41450000       0.24000000       0.51380000
    26  H          0.58550000       0.74000000      -0.01380000
    27  H          0.58550000       0.76000000       0.48620000
    28  H          0.41450000       0.26000000       0.01380000
    29  H          0.26630000       0.05290000       0.43050000
    30  H          0.73370000       0.55290000       0.06950000
    31  H          0.73370000       0.94710000       0.56950000
    32  H          0.26630000       0.44710000       0.93050000
    33  C          0.34677180       0.28933000       0.30783150
    34  C          0.65322820       0.78933000       0.19216850
    35  C          0.65322820       0.71067000       0.69216850
    36  C          0.34677180       0.21067000       0.80783150
    37  H          0.31770000       0.14190000       0.24550000
    38  H          0.68230000       0.64190000       0.25450000
    39  H          0.68230000       0.85810000       0.75450000
    40  H          0.31770000       0.35810000       0.74550000
    41  H          0.46430000       0.33180000       0.32840000
    42  H          0.53570000       0.83180000       0.17160000
    43  H          0.53570000       0.66820000       0.67160000
    44  H          0.46430000       0.16820000       0.82840000
    45  C          0.23822190       0.51993000       0.24830140
    46  C          0.76177810       0.01993000       0.25169860
    47  C          0.76177810       0.48007000       0.75169860
    48  C          0.23822190      -0.01993000       0.74830140
    49  H          0.30320000       0.68040000       0.27130000
    50  H          0.69680000       0.18040000       0.22870000
    51  H          0.69680000       0.31960000       0.72870000
    52  H          0.30320000       0.81960000       0.77130000
    53  H          0.19140000       0.50480000       0.15000000
    54  H          0.80860000       0.00480000       0.35000000
    55  H          0.80860000       0.49520000       0.85000000
    56  H          0.19140000      -0.00480000       0.65000000
