data_EFUMAU03
_symmetry_space_group_name_H-M    'P1'
_symmetry_Int_Tables_number       1
loop_
_symmetry_equiv_pos_site_id
_symmetry_equiv_pos_as_xyz
1 x,y,z
_cell_length_a                   7.7022
_cell_length_b                   4.93801
_cell_length_c                   10.5722
_cell_angle_alpha                94.373
_cell_angle_beta                 98.543
_cell_angle_gamma                99.593
loop_
_atom_site_label
_atom_site_type_symbol
_atom_site_fract_x
_atom_site_fract_y
_atom_site_fract_z
     1  N          0.31827000       0.16011600       0.22620000
     2  N          0.68173000       0.83988400       0.77380000
     3  H          0.38880000       0.05714000       0.23914000
     4  H          0.61120000       0.94286000       0.76086000
     5  C          0.33601100       0.12020000       0.09430000
     6  C          0.66398900       0.87980000       0.90570000
     7  H          0.46130000       0.14180000       0.08600000
     8  H          0.53870000       0.85820000       0.91400000
     9  H          0.28460000       0.25640000       0.04690000
    10  H          0.71540000       0.74360000       0.95310000
    11  C          0.23999000       0.82831600       0.03651900
    12  C          0.76001000       0.17168400       0.96348100
    13  H          0.32290000       0.70100000       0.03420000
    14  H          0.67710000       0.29900000       0.96580000
    15  H          0.17580000       0.82990000       0.95040000
    16  H          0.82420000       0.17010000       0.04960000
    17  C          0.10969000       0.75351800       0.13291900
    18  C          0.89031000       0.24648200       0.86708100
    19  H         -0.01280000       0.71300000       0.08840000
    20  H          0.01280000       0.28700000       0.91160000
    21  H          0.13560000       0.59250000       0.17400000
    22  H          0.86440000       0.40750000       0.82600000
    23  C          0.13599000       0.00031800       0.23220000
    24  C          0.86401000      -0.00031800       0.76780000
    25  H          0.04530000       0.11200000       0.21120000
    26  H          0.95470000       0.88800000       0.78880000
    27  H          0.12980000       0.94180000       0.31680000
    28  H          0.87020000       0.05820000       0.68320000
    29  N          0.55488000       0.74881300       0.31811400
    30  N          0.44512000       0.25118700       0.68188600
    31  H          0.47080000       0.60715000       0.31214000
    32  H          0.52920000       0.39285000       0.68786000
    33  C          0.64549000       0.79151900       0.45420000
    34  C          0.35451000       0.20848100       0.54580000
    35  H          0.56150000       0.73280000       0.51070000
    36  H          0.43850000       0.26720000       0.48930000
    37  H          0.69630000      -0.01500000       0.47840000
    38  H          0.30370000       0.01500000       0.52160000
    39  C          0.79471000       0.61461800       0.46320000
    40  C          0.20529000       0.38538200       0.53680000
    41  H          0.91060000       0.72890000       0.49410000
    42  H          0.08940000       0.27110000       0.50590000
    43  H          0.77320000       0.47190000       0.51940000
    44  H          0.22680000       0.52810000       0.48060000
    45  C          0.78601000       0.49220000       0.32920000
    46  C          0.21399000       0.50780000       0.67080000
    47  H          0.72180000       0.30270000       0.31610000
    48  H          0.27820000       0.69730000       0.68390000
    49  H          0.90440000       0.49590000       0.30750000
    50  H          0.09560000       0.50410000       0.69250000
    51  C          0.68429000       0.68081800       0.25020000
    52  C          0.31571000       0.31918200       0.74980000
    53  H          0.76500000       0.84620000       0.23810000
    54  H          0.23500000       0.15380000       0.76190000
    55  H          0.62950000       0.58620000       0.16650000
    56  H          0.37050000       0.41380000       0.83350000
