data_EFUMAU06
_symmetry_space_group_name_H-M    'P1'
_symmetry_Int_Tables_number       1
loop_
_symmetry_equiv_pos_site_id
_symmetry_equiv_pos_as_xyz
1 x,y,z
_cell_length_a                   5.31326
_cell_length_b                   10.691615
_cell_length_c                   16.2682
_cell_angle_alpha                90.0
_cell_angle_beta                 90.0
_cell_angle_gamma                90.0
loop_
_atom_site_label
_atom_site_type_symbol
_atom_site_fract_x
_atom_site_fract_y
_atom_site_fract_z
     1  N          0.45682000       0.18023120       0.80127800
     2  N          0.04318000       0.81976880       0.30127800
     3  N          0.54318000       0.68023120       0.69872200
     4  N          0.95682000       0.31976880       0.19872200
     5  N          0.54318000       0.81976880       0.19872200
     6  N          0.95682000       0.18023120       0.69872200
     7  N          0.45682000       0.31976880       0.30127800
     8  N          0.04318000       0.68023120       0.80127800
     9  H          0.57340000       0.17661400       0.76671100
    10  H          0.92660000       0.82338600       0.26671100
    11  H          0.42660000       0.67661400       0.73328900
    12  H          0.07340000       0.32338600       0.23328900
    13  H          0.42660000       0.82338600       0.23328900
    14  H          0.07340000       0.17661400       0.73328900
    15  H          0.57340000       0.32338600       0.26671100
    16  H          0.92660000       0.67661400       0.76671100
    17  C          0.49183000       0.07706140       0.85940100
    18  C          0.00817000       0.92293860       0.35940100
    19  C          0.50817000       0.57706140       0.64059900
    20  C         -0.00817000       0.42293860       0.14059900
    21  C          0.50817000       0.92293860       0.14059900
    22  C         -0.00817000       0.07706140       0.64059900
    23  C          0.49183000       0.42293860       0.35940100
    24  C          0.00817000       0.57706140       0.85940100
    25  H          0.54100000      -0.00010000       0.82980000
    26  H          0.95900000       0.00010000       0.32980000
    27  H          0.45900000       0.49990000       0.67020000
    28  H          0.04100000       0.50010000       0.17020000
    29  H          0.45900000       0.00010000       0.17020000
    30  H          0.04100000      -0.00010000       0.67020000
    31  H          0.54100000       0.50010000       0.32980000
    32  H          0.95900000       0.49990000       0.82980000
    33  H          0.33370000       0.06070000       0.88970000
    34  H          0.16630000       0.93930000       0.38970000
    35  H          0.66630000       0.56070000       0.61030000
    36  H          0.83370000       0.43930000       0.11030000
    37  H          0.66630000       0.93930000       0.11030000
    38  H          0.83370000       0.06070000       0.61030000
    39  H          0.33370000       0.43930000       0.38970000
    40  H          0.16630000       0.56070000       0.88970000
    41  C          0.69943000       0.11639140       0.91879900
    42  C          0.80057000       0.88360860       0.41879900
    43  C          0.30057000       0.61639140       0.58120100
    44  C          0.19943000       0.38360860       0.08120100
    45  C          0.30057000       0.88360860       0.08120100
    46  C          0.19943000       0.11639140       0.58120100
    47  C          0.69943000       0.38360860       0.41879900
    48  C          0.80057000       0.61639140       0.91879900
    49  H          0.65980000       0.08900000       0.97550000
    50  H          0.84020000       0.91100000       0.47550000
    51  H          0.34020000       0.58900000       0.52450000
    52  H          0.15980000       0.41100000       0.02450000
    53  H          0.34020000       0.91100000       0.02450000
    54  H          0.15980000       0.08900000       0.52450000
    55  H          0.65980000       0.41100000       0.47550000
    56  H          0.84020000       0.58900000       0.97550000
    57  H          0.86300000       0.08000000       0.90230000
    58  H          0.63700000       0.92000000       0.40230000
    59  H          0.13700000       0.58000000       0.59770000
    60  H          0.36300000       0.42000000       0.09770000
    61  H          0.13700000       0.92000000       0.09770000
    62  H          0.36300000       0.08000000       0.59770000
    63  H          0.86300000       0.42000000       0.40230000
    64  H          0.63700000       0.58000000       0.90230000
    65  C          0.70653000       0.25866140       0.91330900
    66  C          0.79347000       0.74133860       0.41330900
    67  C          0.29347000       0.75866140       0.58669100
    68  C          0.20653000       0.24133860       0.08669100
    69  C          0.29347000       0.74133860       0.08669100
    70  C          0.20653000       0.25866140       0.58669100
    71  C          0.70653000       0.24133860       0.41330900
    72  C          0.79347000       0.75866140       0.91330900
    73  H          0.87250000       0.28790000       0.89350000
    74  H          0.62750000       0.71210000       0.39350000
    75  H          0.12750000       0.78790000       0.60650000
    76  H          0.37250000       0.21210000       0.10650000
    77  H          0.12750000       0.71210000       0.10650000
    78  H          0.37250000       0.28790000       0.60650000
    79  H          0.87250000       0.21210000       0.39350000
    80  H          0.62750000       0.78790000       0.89350000
    81  H          0.67220000       0.29700000       0.96760000
    82  H          0.82780000       0.70300000       0.46760000
    83  H          0.32780000       0.79700000       0.53240000
    84  H          0.17220000       0.20300000       0.03240000
    85  H          0.32780000       0.70300000       0.03240000
    86  H          0.17220000       0.29700000       0.53240000
    87  H          0.67220000       0.20300000       0.46760000
    88  H          0.82780000       0.79700000       0.96760000
    89  C          0.49923000       0.29167140       0.85179100
    90  C          0.00077000       0.70832860       0.35179100
    91  C          0.50077000       0.79167140       0.64820900
    92  C         -0.00077000       0.20832860       0.14820900
    93  C          0.50077000       0.70832860       0.14820900
    94  C         -0.00077000       0.29167140       0.64820900
    95  C          0.49923000       0.20832860       0.35179100
    96  C          0.00077000       0.79167140       0.85179100
    97  H          0.34290000       0.31520000       0.88110000
    98  H          0.15710000       0.68480000       0.38110000
    99  H          0.65710000       0.81520000       0.61890000
   100  H          0.84290000       0.18480000       0.11890000
   101  H          0.65710000       0.68480000       0.11890000
   102  H          0.84290000       0.31520000       0.61890000
   103  H          0.34290000       0.18480000       0.38110000
   104  H          0.15710000       0.81520000       0.88110000
   105  H          0.55220000       0.36290000       0.81690000
   106  H          0.94780000       0.63710000       0.31690000
   107  H          0.44780000       0.86290000       0.68310000
   108  H          0.05220000       0.13710000       0.18310000
   109  H          0.44780000       0.63710000       0.18310000
   110  H          0.05220000       0.36290000       0.68310000
   111  H          0.55220000       0.13710000       0.31690000
   112  H          0.94780000       0.86290000       0.81690000
