data_EHOWIH16
_symmetry_space_group_name_H-M    'P1'
_symmetry_Int_Tables_number       1
loop_
_symmetry_equiv_pos_site_id
_symmetry_equiv_pos_as_xyz
1 x,y,z
_cell_length_a                   13.1498
_cell_length_b                   3.41031
_cell_length_c                   10.1732
_cell_angle_alpha                90.0
_cell_angle_beta                 93.114
_cell_angle_gamma                90.0
loop_
_atom_site_label
_atom_site_type_symbol
_atom_site_fract_x
_atom_site_fract_y
_atom_site_fract_z
     1  O          0.59901000       0.32941600       0.56314000
     2  O          0.40099000       0.82941600       0.93686000
     3  O          0.40099000       0.67058400       0.43686000
     4  O          0.59901000       0.17058400       0.06314000
     5  N          0.56571300       0.13421800       0.35485000
     6  N          0.43428700       0.63421800       0.14515000
     7  N          0.43428700       0.86578200       0.64515000
     8  N          0.56571300       0.36578200       0.85485000
     9  H          0.50855000       0.03249500       0.37429600
    10  H          0.49145000       0.53249500       0.12570400
    11  H          0.49145000      -0.03249500       0.62570400
    12  H          0.50855000       0.46750500       0.87429600
    13  H          0.58460100       0.12275700       0.27526900
    14  H          0.41539900       0.62275700       0.22473100
    15  H          0.41539900       0.87724300       0.72473100
    16  H          0.58460100       0.37724300       0.77526900
    17  N          0.93131400       0.60841800       0.37115000
    18  N          0.06868600       0.10841800       0.12885000
    19  N          0.06868600       0.39158200       0.62885000
    20  N          0.93131400       0.89158200       0.87115000
    21  C          0.62520000       0.30930000       0.44777000
    22  C          0.37480000       0.80930000       0.05223000
    23  C          0.37480000       0.69070000       0.55223000
    24  C          0.62520000       0.19070000       0.94777000
    25  C          0.77491600       0.33630000       0.29757000
    26  C          0.22508400       0.83630000       0.20243000
    27  C          0.22508400       0.66370000       0.70243000
    28  C          0.77491600       0.16370000       0.79757000
    29  H          0.73797300       0.20325900       0.23082100
    30  H          0.26202700       0.70325900       0.26917900
    31  H          0.26202700       0.79674100       0.76917900
    32  H          0.73797300       0.29674100       0.73082100
    33  C          0.79320000       0.64130000       0.50718000
    34  C          0.20680000       0.14130000      -0.00718000
    35  C          0.20680000       0.35870000       0.49282000
    36  C          0.79320000       0.85870000       0.00718000
    37  H          0.76948400       0.71347600       0.58821400
    38  H          0.23051600       0.21347600       0.91178600
    39  H          0.23051600       0.28652400       0.41178600
    40  H          0.76948400       0.78652400       0.08821400
    41  C          0.72520000       0.43730000       0.41307000
    42  C          0.27480000       0.93730000       0.08693000
    43  C          0.27480000       0.56270000       0.58693000
    44  C          0.72520000       0.06270000       0.91307000
    45  C          0.88620000       0.72630000       0.48038000
    46  C          0.11380000       0.22630000       0.01962000
    47  C          0.11380000       0.27370000       0.51962000
    48  C          0.88620000       0.77370000       0.98038000
    49  H          0.92471200       0.87758300       0.54074600
    50  H          0.07528800       0.37758300       0.95925400
    51  H          0.07528800       0.12241700       0.45925400
    52  H          0.92471200       0.62241700       0.04074600
    53  C          0.86861700       0.41840000       0.28068000
    54  C          0.13138300       0.91840000       0.21932000
    55  C          0.13138300       0.58160000       0.71932000
    56  C          0.86861700       0.08160000       0.78068000
    57  H          0.89547700       0.34273700       0.20178200
    58  H          0.10452300       0.84273700       0.29821800
    59  H          0.10452300       0.65726300       0.79821800
    60  H          0.89547700       0.15726300       0.70178200
