data_EHOWIH05
_symmetry_space_group_name_H-M    'P1'
_symmetry_Int_Tables_number       1
loop_
_symmetry_equiv_pos_site_id
_symmetry_equiv_pos_as_xyz
1 x,y,z
_cell_length_a                   5.192311
_cell_length_b                   9.4663
_cell_length_c                   12.2593
_cell_angle_alpha                90.0
_cell_angle_beta                 91.2177
_cell_angle_gamma                90.0
loop_
_atom_site_label
_atom_site_type_symbol
_atom_site_fract_x
_atom_site_fract_y
_atom_site_fract_z
     1  O          0.92282000       0.07420120       0.81663800
     2  O          0.07718000       0.57420120       0.68336200
     3  O          0.07718000       0.92579880       0.18336200
     4  O          0.92282000       0.42579880       0.31663800
     5  N          0.02463000       0.30274130       0.79749100
     6  N         -0.02463000       0.80274130       0.70250900
     7  N         -0.02463000       0.69725870       0.20250900
     8  N          0.02463000       0.19725870       0.29749100
     9  H          0.13140000       0.30020000       0.85210000
    10  H          0.86860000       0.80020000       0.64790000
    11  H          0.86860000       0.69980000       0.14790000
    12  H          0.13140000       0.19980000       0.35210000
    13  H          0.00130000       0.38010000       0.76190000
    14  H         -0.00130000       0.88010000       0.73810000
    15  H         -0.00130000       0.61990000       0.23810000
    16  H          0.00130000       0.11990000       0.26190000
    17  N          0.34963000       0.20356150       0.50146110
    18  N          0.65037000       0.70356150      -0.00146110
    19  N          0.65037000       0.79643850       0.49853890
    20  N          0.34963000       0.29643850       0.00146110
    21  C          0.34443000       0.10508190       0.57799140
    22  C          0.65557000       0.60508190       0.92200860
    23  C          0.65557000       0.89491810       0.42200860
    24  C          0.34443000       0.39491810       0.07799140
    25  H          0.21600000       0.03670000       0.57310000
    26  H          0.78400000       0.53670000       0.92690000
    27  H          0.78400000       0.96330000       0.42690000
    28  H          0.21600000       0.46330000       0.07310000
    29  C          0.51753000       0.09768170       0.66447120
    30  C          0.48247000       0.59768170       0.83552880
    31  C          0.48247000       0.90231830       0.33552880
    32  C          0.51753000       0.40231830       0.16447120
    33  H          0.50580000       0.02580000       0.71580000
    34  H          0.49420000       0.52580000       0.78420000
    35  H          0.49420000       0.97420000       0.28420000
    36  H          0.50580000       0.47420000       0.21580000
    37  C          0.70843000       0.19854150       0.67375120
    38  C          0.29157000       0.69854150       0.82624880
    39  C          0.29157000       0.80145850       0.32624880
    40  C          0.70843000       0.30145850       0.17375120
    41  C          0.89663000       0.18790160       0.76840120
    42  C          0.10337000       0.68790160       0.73159880
    43  C          0.10337000       0.81209840       0.23159880
    44  C          0.89663000       0.31209840       0.26840120
    45  C          0.53464000       0.30024180       0.51114140
    46  C          0.46536000       0.80024180      -0.01114140
    47  C          0.46536000       0.69975820       0.48885860
    48  C          0.53464000       0.19975820       0.01114140
    49  H          0.54140000       0.37070000       0.45840000
    50  H          0.45860000       0.87070000       0.04160000
    51  H          0.45860000       0.62930000       0.54160000
    52  H          0.54140000       0.12930000       0.95840000
    53  C          0.71703000       0.30254160       0.59458130
    54  C          0.28297000       0.80254160       0.90541870
    55  C          0.28297000       0.69745840       0.40541870
    56  C          0.71703000       0.19745840       0.09458130
    57  H          0.84290000       0.37240000       0.59760000
    58  H          0.15710000       0.87240000       0.90240000
    59  H          0.15710000       0.62760000       0.40240000
    60  H          0.84290000       0.12760000       0.09760000
