data_EHOWIH03
_symmetry_space_group_name_H-M    'P1'
_symmetry_Int_Tables_number       1
loop_
_symmetry_equiv_pos_site_id
_symmetry_equiv_pos_as_xyz
1 x,y,z
_cell_length_a                   10.16037
_cell_length_b                   7.32315
_cell_length_c                   15.87206
_cell_angle_alpha                90.0
_cell_angle_beta                 90.0
_cell_angle_gamma                90.0
loop_
_atom_site_label
_atom_site_type_symbol
_atom_site_fract_x
_atom_site_fract_y
_atom_site_fract_z
     1  N          0.63287140       0.18972000       0.72635900
     2  N          0.86712860       0.81028000       0.22635900
     3  N          0.13287140       0.31028000       0.27364100
     4  N          0.36712860       0.68972000       0.77364100
     5  N          0.36712860       0.81028000       0.27364100
     6  N          0.13287140       0.18972000       0.77364100
     7  N          0.86712860       0.68972000       0.72635900
     8  N          0.63287140       0.31028000       0.22635900
     9  C          0.69796160       0.13192000       0.86942110
    10  C          0.80203840       0.86808000       0.36942110
    11  C          0.19796160       0.36808000       0.13057890
    12  C          0.30203840       0.63192000       0.63057890
    13  C          0.30203840       0.86808000       0.13057890
    14  C          0.19796160       0.13192000       0.63057890
    15  C          0.80203840       0.63192000       0.86942110
    16  C          0.69796160       0.36808000       0.36942110
    17  H          0.76040000       0.08060000       0.90720000
    18  H          0.73960000       0.91940000       0.40720000
    19  H          0.26040000       0.41940000       0.09280000
    20  H          0.23960000       0.58060000       0.59280000
    21  H          0.23960000       0.91940000       0.09280000
    22  H          0.26040000       0.08060000       0.59280000
    23  H          0.73960000       0.58060000       0.90720000
    24  H          0.76040000       0.41940000       0.40720000
    25  O          0.44875120       0.25702000       0.01940800
    26  O          0.05124880       0.74298000       0.51940800
    27  O          0.94875120       0.24298000       0.98059200
    28  O          0.55124880       0.75702000       0.48059200
    29  O          0.55124880       0.74298000       0.98059200
    30  O          0.94875120       0.25702000       0.48059200
    31  O          0.05124880       0.75702000       0.01940800
    32  O          0.44875120       0.24298000       0.51940800
    33  C          0.71538170       0.11782000       0.78307110
    34  C          0.78461830       0.88218000       0.28307110
    35  C          0.21538170       0.38218000       0.21692890
    36  C          0.28461830       0.61782000       0.71692890
    37  C          0.28461830       0.88218000       0.21692890
    38  C          0.21538170       0.11782000       0.71692890
    39  C          0.78461830       0.61782000       0.78307110
    40  C          0.71538170       0.38218000       0.28307110
    41  H          0.79020000       0.05350000       0.76300000
    42  H          0.70980000       0.94650000       0.26300000
    43  H          0.29020000       0.44650000       0.23700000
    44  H          0.20980000       0.55350000       0.73700000
    45  H          0.20980000       0.94650000       0.23700000
    46  H          0.29020000       0.05350000       0.73700000
    47  H          0.70980000       0.55350000       0.76300000
    48  H          0.79020000       0.44650000       0.26300000
    49  C          0.49940170       0.29332000       0.84141110
    50  C          0.00059830       0.70668000       0.34141110
    51  C         -0.00059830       0.20668000       0.15858890
    52  C          0.50059830       0.79332000       0.65858890
    53  C          0.50059830       0.70668000       0.15858890
    54  C         -0.00059830       0.29332000       0.65858890
    55  C          0.00059830       0.79332000       0.84141110
    56  C          0.49940170       0.20668000       0.34141110
    57  H          0.42160000       0.35340000       0.85970000
    58  H          0.07840000       0.64660000       0.35970000
    59  H          0.92160000       0.14660000       0.14030000
    60  H          0.57840000       0.85340000       0.64030000
    61  H          0.57840000       0.64660000       0.14030000
    62  H          0.92160000       0.35340000       0.64030000
    63  H          0.07840000       0.85340000       0.85970000
    64  H          0.42160000       0.14660000       0.35970000
    65  C          0.58778160       0.22222000       0.89965110
    66  C          0.91221840       0.77778000       0.39965110
    67  C          0.08778160       0.27778000       0.10034890
    68  C          0.41221840       0.72222000       0.60034890
    69  C          0.41221840       0.77778000       0.10034890
    70  C          0.08778160       0.22222000       0.60034890
    71  C          0.91221840       0.72222000       0.89965110
    72  C          0.58778160       0.27778000       0.39965110
    73  N          0.66788150       0.26152000       0.04121900
    74  N          0.83211850       0.73848000       0.54121900
    75  N          0.16788150       0.23848000       0.95878100
    76  N          0.33211850       0.76152000       0.45878100
    77  N          0.33211850       0.73848000       0.95878100
    78  N          0.16788150       0.26152000       0.45878100
    79  N          0.83211850       0.76152000       0.04121900
    80  N          0.66788150       0.23848000       0.54121900
    81  H          0.65870000       0.27810000       0.09580000
    82  H          0.84130000       0.72190000       0.59580000
    83  H          0.15870000       0.22190000       0.90420000
    84  H          0.34130000       0.77810000       0.40420000
    85  H          0.34130000       0.72190000       0.90420000
    86  H          0.15870000       0.27810000       0.40420000
    87  H          0.84130000       0.77810000       0.09580000
    88  H          0.65870000       0.22190000       0.59580000
    89  H          0.74700000       0.25410000       0.01900000
    90  H          0.75300000       0.74590000       0.51900000
    91  H          0.24700000       0.24590000       0.98100000
    92  H          0.25300000       0.75410000       0.48100000
    93  H          0.25300000       0.74590000       0.98100000
    94  H          0.24700000       0.25410000       0.48100000
    95  H          0.75300000       0.75410000       0.01900000
    96  H          0.74700000       0.24590000       0.51900000
    97  C          0.52638170       0.27512000       0.75663120
    98  C          0.97361830       0.72488000       0.25663120
    99  C          0.02638170       0.22488000       0.24336880
   100  C          0.47361830       0.77512000       0.74336880
   101  C          0.47361830       0.72488000       0.24336880
   102  C          0.02638170       0.27512000       0.74336880
   103  C          0.97361830       0.77512000       0.75663120
   104  C          0.52638170       0.22488000       0.25663120
   105  H          0.46600000       0.32620000       0.71750000
   106  H          0.03400000       0.67380000       0.21750000
   107  H          0.96600000       0.17380000       0.28250000
   108  H          0.53400000       0.82620000       0.78250000
   109  H          0.53400000       0.67380000       0.28250000
   110  H          0.96600000       0.32620000       0.78250000
   111  H          0.03400000       0.82620000       0.71750000
   112  H          0.46600000       0.17380000       0.21750000
   113  C          0.56228160       0.24783000      -0.00762890
   114  C          0.93771840       0.75217000       0.49237110
   115  C          0.06228160       0.25217000       0.00762890
   116  C          0.43771840       0.74783000       0.50762890
   117  C          0.43771840       0.75217000       0.00762890
   118  C          0.06228160       0.24783000       0.50762890
   119  C          0.93771840       0.74783000      -0.00762890
   120  C          0.56228160       0.25217000       0.49237110
