data_EHOWIH
_symmetry_space_group_name_H-M    'P1'
_symmetry_Int_Tables_number       1
loop_
_symmetry_equiv_pos_site_id
_symmetry_equiv_pos_as_xyz
1 x,y,z
_cell_length_a                   10.16642
_cell_length_b                   5.73031
_cell_length_c                   10.03292
_cell_angle_alpha                90.0
_cell_angle_beta                 98.16901
_cell_angle_gamma                90.0
loop_
_atom_site_label
_atom_site_type_symbol
_atom_site_fract_x
_atom_site_fract_y
_atom_site_fract_z
     1  N          0.07244100       0.76666190       0.10296110
     2  N          0.92755900       0.26666190       0.39703890
     3  N          0.92755900       0.23333810       0.89703890
     4  N          0.07244100       0.73333810       0.60296110
     5  C          0.15588130       0.80362000       0.01319130
     6  C          0.84411870       0.30362000       0.48680870
     7  C          0.84411870       0.19638000      -0.01319130
     8  C          0.15588130       0.69638000       0.51319130
     9  C          0.25373110       0.64782000      -0.01136120
    10  C          0.74626890       0.14782000       0.51136120
    11  C          0.74626890       0.35218000       0.01136120
    12  C          0.25373110       0.85218000       0.48863880
    13  C          0.27017110       0.44342000       0.06403110
    14  C          0.72982890       0.94342000       0.43596890
    15  C          0.72982890       0.55658000       0.93596890
    16  C          0.27017110       0.05658000       0.56403110
    17  C          0.18474120       0.40242000       0.15823120
    18  C          0.81525880       0.90242000       0.34176880
    19  C          0.81525880       0.59758000       0.84176880
    20  C          0.18474120       0.09758000       0.65823120
    21  C          0.08721120       0.56652000       0.17215120
    22  C          0.91278880       0.06652000       0.32784880
    23  C          0.91278880       0.43348000       0.82784880
    24  C          0.08721120       0.93348000       0.67215120
    25  C          0.37465110       0.27042000       0.03870110
    26  C          0.62534890       0.77042000       0.46129890
    27  C          0.62534890       0.72958000       0.96129890
    28  C          0.37465110       0.22958000       0.53870110
    29  O          0.40606800       0.24960150       0.92409200
    30  O          0.59393200       0.74960150       0.57590800
    31  O          0.59393200       0.75039850       0.07590800
    32  O          0.40606800       0.25039850       0.42409200
    33  N          0.42874100       0.14156190       0.14247100
    34  N          0.57125900       0.64156190       0.35752900
    35  N          0.57125900       0.85843810       0.85752900
    36  N          0.42874100       0.35843810       0.64247100
    37  H          0.14351500       0.94930000       0.96398500
    38  H          0.85648500       0.44930000       0.53601500
    39  H          0.85648500       0.05070000       0.03601500
    40  H          0.14351500       0.55070000       0.46398500
    41  H          0.31201400       0.68330000       0.92048600
    42  H          0.68798600       0.18330000       0.57951400
    43  H          0.68798600       0.31670000       0.07951400
    44  H          0.31201400       0.81670000       0.42048600
    45  H          0.18901500       0.26130000       0.21281500
    46  H          0.81098500       0.76130000       0.28718500
    47  H          0.81098500       0.73870000       0.78718500
    48  H          0.18901500       0.23870000       0.71281500
    49  H          0.02451500       0.53830000       0.23541500
    50  H          0.97548500       0.03830000       0.26458500
    51  H          0.97548500       0.46170000       0.76458500
    52  H          0.02451500       0.96170000       0.73541500
    53  H          0.40451400       0.16330000       0.22471600
    54  H          0.59548600       0.66330000       0.27528400
    55  H          0.59548600       0.83670000       0.77528400
    56  H          0.40451400       0.33670000       0.72471600
    57  H          0.48571500       0.02430000       0.12571600
    58  H          0.51428500       0.52430000       0.37428400
    59  H          0.51428500      -0.02430000       0.87428400
    60  H          0.48571500       0.47570000       0.62571600
