data_EHOWIH02
_symmetry_space_group_name_H-M    'P1'
_symmetry_Int_Tables_number       1
loop_
_symmetry_equiv_pos_site_id
_symmetry_equiv_pos_as_xyz
1 x,y,z
_cell_length_a                   15.7353
_cell_length_b                   7.997618
_cell_length_c                   9.8853
_cell_angle_alpha                90.0
_cell_angle_beta                 105.58617
_cell_angle_gamma                90.0
loop_
_atom_site_label
_atom_site_type_symbol
_atom_site_fract_x
_atom_site_fract_y
_atom_site_fract_z
     1  N          0.36889130       0.79572000       0.95798000
     2  N          0.63110870       0.29572000       0.54202000
     3  N          0.63110870       0.20428000       0.04202000
     4  N          0.36889130       0.70428000       0.45798000
     5  C          0.32894160       0.68893000       0.85768000
     6  C          0.67105840       0.18893000       0.64232000
     7  C          0.67105840       0.31107000       0.14232000
     8  C          0.32894160       0.81107000       0.35768000
     9  H          0.29820000       0.74540000       0.76700000
    10  H          0.70180000       0.24540000       0.73300000
    11  H          0.70180000       0.25460000       0.23300000
    12  H          0.29820000       0.75460000       0.26700000
    13  C          0.33297160       0.51623000       0.87418000
    14  C          0.66702840       0.01623000       0.62582000
    15  C          0.66702840       0.48377000       0.12582000
    16  C          0.33297160      -0.01623000       0.37418000
    17  H          0.30020000       0.44450000       0.79630000
    18  H          0.69980000       0.94450000       0.70370000
    19  H          0.69980000       0.55550000       0.20370000
    20  H          0.30020000       0.05550000       0.29630000
    21  C          0.37976150       0.45043000       0.00192000
    22  C          0.62023850       0.95043000       0.49808000
    23  C          0.62023850       0.54957000      -0.00192000
    24  C          0.37976150       0.04957000       0.50192000
    25  C          0.42040160       0.56103000       0.10752000
    26  C          0.57959840       0.06103000       0.39248000
    27  C          0.57959840       0.43897000       0.89248000
    28  C          0.42040160       0.93897000       0.60752000
    29  H          0.45940000       0.51620000       0.19760000
    30  H          0.54060000       0.01620000       0.30240000
    31  H          0.54060000       0.48380000       0.80240000
    32  H          0.45940000      -0.01620000       0.69760000
    33  C          0.41387170       0.73063000       0.08072000
    34  C          0.58612830       0.23063000       0.41928000
    35  C          0.58612830       0.26937000       0.91928000
    36  C          0.41387170       0.76937000       0.58072000
    37  H          0.43930000       0.81170000       0.15660000
    38  H          0.56070000       0.31170000       0.34340000
    39  H          0.56070000       0.18830000       0.84340000
    40  H          0.43930000       0.68830000       0.65660000
    41  N          0.37609130       0.16472000       0.91912810
    42  N          0.62390870       0.66472000       0.58087190
    43  N          0.62390870       0.83528000       0.08087190
    44  N          0.37609130       0.33528000       0.41912810
    45  H          0.37990000       0.04580000       0.93770000
    46  H          0.62010000       0.54580000       0.56230000
    47  H          0.62010000       0.95420000       0.06230000
    48  H          0.37990000       0.45420000       0.43770000
    49  H          0.38100000       0.21550000       0.83710000
    50  H          0.61900000       0.71550000       0.66290000
    51  H          0.61900000       0.78450000       0.16290000
    52  H          0.38100000       0.28450000       0.33710000
    53  O          0.39822110       0.21212000       0.15103150
    54  O          0.60177890       0.71212000       0.34896850
    55  O          0.60177890       0.78788000       0.84896850
    56  O          0.39822110       0.28788000       0.65103150
    57  C          0.38604150       0.26513000       0.03002000
    58  C          0.61395850       0.76513000       0.46998000
    59  C          0.61395850       0.73487000       0.96998000
    60  C          0.38604150       0.23487000       0.53002000
    61  N          0.12732130       0.29702000       0.06632000
    62  N          0.87267870       0.79702000       0.43368000
    63  N          0.87267870       0.70298000       0.93368000
    64  N          0.12732130       0.20298000       0.56632000
    65  C          0.16832160       0.19093000       0.00082000
    66  C          0.83167840       0.69093000       0.49918000
    67  C          0.83167840       0.80907000      -0.00082000
    68  C          0.16832160       0.30907000       0.50082000
    69  H          0.20170000       0.25210000       0.93560000
    70  H          0.79830000       0.75210000       0.56440000
    71  H          0.79830000       0.74790000       0.06440000
    72  H          0.20170000       0.24790000       0.43560000
    73  C          0.16680160       0.01923000       0.01532000
    74  C          0.83319840       0.51923000       0.48468000
    75  C          0.83319840       0.98077000       0.98468000
    76  C          0.16680160       0.48077000       0.51532000
    77  H          0.19910000       0.94490000       0.96450000
    78  H          0.80090000       0.44490000       0.53550000
    79  H          0.80090000       0.05510000       0.03550000
    80  H          0.19910000       0.55510000       0.46450000
    81  C          0.11993140       0.95127000       0.10282000
    82  C          0.88006860       0.45127000       0.39718000
    83  C          0.88006860       0.04873000       0.89718000
    84  C          0.11993140       0.54873000       0.60282000
    85  C          0.07797160       0.06013000       0.17292000
    86  C          0.92202840       0.56013000       0.32708000
    87  C          0.92202840       0.93987000       0.82708000
    88  C          0.07797160       0.43987000       0.67292000
    89  H          0.04000000       0.01010000       0.24040000
    90  H          0.96000000       0.51010000       0.25960000
    91  H          0.96000000      -0.01010000       0.75960000
    92  H          0.04000000       0.48990000       0.74040000
    93  C          0.08239170       0.22943000       0.15052000
    94  C          0.91760830       0.72943000       0.34948000
    95  C          0.91760830       0.77057000       0.84948000
    96  C          0.08239170       0.27057000       0.65052000
    97  H          0.06110000       0.31190000       0.20790000
    98  H          0.93890000       0.81190000       0.29210000
    99  H          0.93890000       0.68810000       0.79210000
   100  H          0.06110000       0.18810000       0.70790000
   101  N          0.12957130       0.66568000       0.02844190
   102  N          0.87042870       0.16568000       0.47155810
   103  N          0.87042870       0.33432000       0.97155810
   104  N          0.12957130       0.83432000       0.52844190
   105  H          0.12060000       0.54800000       0.04010000
   106  H          0.87940000       0.04800000       0.45990000
   107  H          0.87940000       0.45200000       0.95990000
   108  H          0.12060000       0.95200000       0.54010000
   109  H          0.11900000       0.71180000       0.93580000
   110  H          0.88100000       0.21180000       0.56420000
   111  H          0.88100000       0.28820000       0.06420000
   112  H          0.11900000       0.78820000       0.43580000
   113  O          0.10352110       0.71338000       0.23856160
   114  O          0.89647890       0.21338000       0.26143840
   115  O          0.89647890       0.28662000       0.76143840
   116  O          0.10352110       0.78662000       0.73856160
   117  C          0.11631150       0.76647000       0.12782000
   118  C          0.88368850       0.26647000       0.37218000
   119  C          0.88368850       0.23353000       0.87218000
   120  C          0.11631150       0.73353000       0.62782000
