data_EJEQAL07
_symmetry_space_group_name_H-M    'P1'
_symmetry_Int_Tables_number       1
loop_
_symmetry_equiv_pos_site_id
_symmetry_equiv_pos_as_xyz
1 x,y,z
_cell_length_a                   6.05873
_cell_length_b                   16.43861
_cell_length_c                   23.347514
_cell_angle_alpha                90.0
_cell_angle_beta                 90.0
_cell_angle_gamma                90.0
loop_
_atom_site_label
_atom_site_type_symbol
_atom_site_fract_x
_atom_site_fract_y
_atom_site_fract_z
     1  O          0.43137000       0.62272000       0.94592170
     2  O          0.06863000       0.37728000       0.44592170
     3  O          0.56863000       0.12272000       0.55407830
     4  O          0.93137000       0.87728000       0.05407830
     5  O          0.02266000       0.37832000       0.82358160
     6  O          0.47734000       0.62168000       0.32358160
     7  O         -0.02266000       0.87832000       0.67641840
     8  O          0.52266000       0.12168000       0.17641840
     9  C          0.56831000       0.62733000       0.89452000
    10  C          0.93169000       0.37267000       0.39452000
    11  C          0.43169000       0.12733000       0.60548000
    12  C          0.06831000       0.87267000       0.10548000
    13  O          0.19208000       0.67173000       0.00582000
    14  O          0.30792000       0.32827000       0.50582000
    15  O          0.80792000       0.17173000       0.49418000
    16  O          0.69208000       0.82827000      -0.00582000
    17  O          0.79449000       0.35103000       0.75162000
    18  O          0.70551000       0.64897000       0.25162000
    19  O          0.20551000       0.85103000       0.74838000
    20  O          0.29449000       0.14897000       0.24838000
    21  O          0.24491100       0.71503000       0.82882000
    22  O          0.25508900       0.28497000       0.32882000
    23  O          0.75508900       0.21503000       0.67118000
    24  O          0.74491100       0.78497000       0.17118000
    25  C          0.96699000       0.44763000       0.93112000
    26  C          0.53301000       0.55237000       0.43112000
    27  C          0.03301000       0.94763000       0.56888000
    28  C          0.46699000       0.05237000       0.06888000
    29  C          0.28591000       0.35234000       0.98863000
    30  C          0.21409000       0.64766000       0.48863000
    31  C          0.71409000       0.85234000       0.51137000
    32  C          0.78591000       0.14766000       0.01137000
    33  C          0.75431000       0.49164000       0.91043000
    34  C          0.74569000       0.50836000       0.41043000
    35  C          0.24569000      -0.00836000       0.58957000
    36  C          0.25431000       0.00836000       0.08957000
    37  C          0.29279000       0.68254000       0.96193000
    38  C          0.20721000       0.31746000       0.46193000
    39  C          0.70721000       0.18254000       0.53807000
    40  C          0.79279000       0.81746000       0.03807000
    41  C          0.77941000       0.58354000       0.90903000
    42  C          0.72059000       0.41646000       0.40903000
    43  C          0.22059000       0.08354000       0.59097000
    44  C          0.27941000       0.91646000       0.09097000
    45  C          0.02821000       0.46984000       0.99392000
    46  C          0.47179000       0.53016000       0.49392000
    47  C          0.97179000       0.96984000       0.50608000
    48  C          0.52821000       0.03016000       0.00608000
    49  C          0.95271300       0.38674000       0.77043000
    50  C          0.54728700       0.61326000       0.27043000
    51  C          0.04728700       0.88674000       0.72957000
    52  C          0.45271300       0.11326000       0.22957000
    53  C          0.95949000       0.35523000       0.92263000
    54  C          0.54051000       0.64477000       0.42263000
    55  C          0.04051000       0.85523000       0.57737000
    56  C          0.45949000       0.14477000       0.07737000
    57  C          0.17659000       0.31593000       0.93933000
    58  C          0.32341000       0.68407000       0.43933000
    59  C          0.82341000       0.81593000       0.56067000
    60  C          0.67659000       0.18407000       0.06067000
    61  C          0.59871000       0.71274000       0.87443000
    62  C          0.90129000       0.28726000       0.37443000
    63  C          0.40129000       0.21274000       0.62557000
    64  C          0.09871000       0.78726000       0.12557000
    65  H          0.67172200       0.71244900       0.83744100
    66  H          0.82827800       0.28755100       0.33744100
    67  H          0.32827800       0.21244900       0.66255900
    68  H          0.17172200       0.78755100       0.16255900
    69  H          0.69269400       0.74161200       0.90120700
    70  H          0.80730600       0.25838800       0.40120700
    71  H          0.30730600       0.24161200       0.59879300
    72  H          0.19269400       0.75838800       0.09879300
    73  C          0.26431000       0.25344000       0.91153000
    74  C          0.23569000       0.74656000       0.41153000
    75  C          0.73569000       0.75344000       0.58847000
    76  C          0.76431000       0.24656000       0.08847000
    77  C          0.21911100       0.41954000       0.01393000
    78  C          0.28088900       0.58046000       0.51393000
    79  C          0.78088900       0.91954000       0.48607000
    80  C          0.71911100       0.08046000       0.98607000
    81  C          0.89079000       0.32834000       0.86223000
    82  C          0.60921000       0.67166000       0.36223000
    83  C          0.10921000       0.82834000       0.63777000
    84  C          0.39079000       0.17166000       0.13777000
    85  C          0.92931200       0.23824000       0.85224000
    86  C          0.57068800       0.76176000       0.35224000
    87  C          0.07068800       0.73824000       0.64776000
    88  C          0.42931200       0.26176000       0.14776000
    89  C          0.16461100       0.21144000       0.86183000
    90  C          0.33538900       0.78856000       0.36183000
    91  C          0.83538900       0.71144000       0.63817000
    92  C          0.66461100       0.28856000       0.13817000
    93  C          0.31581200       0.21935000       0.80923000
    94  C          0.18418800       0.78065000       0.30923000
    95  C          0.68418800       0.71935000       0.69077000
    96  C          0.81581200       0.28065000       0.19077000
    97  H          0.24970900       0.19190900       0.77717300
    98  H          0.25029100       0.80809100       0.27717300
    99  H          0.75029100       0.69190900       0.72282700
   100  H          0.74970900       0.30809100       0.22282700
   101  H          0.33549800       0.27582200       0.80002600
   102  H          0.16450200       0.72417800       0.30002600
   103  H          0.66450200       0.77582200       0.69997400
   104  H          0.83549800       0.22417800       0.19997400
   105  H          0.45662200       0.19525300       0.81742100
   106  H          0.04337800       0.80474700       0.31742100
   107  H          0.54337800       0.69525300       0.68257900
   108  H          0.95662200       0.30474700       0.18257900
   109  C          0.38051100       0.75664000       0.86933000
   110  C          0.11948900       0.24336000       0.36933000
   111  C          0.61948900       0.25664000       0.63067000
   112  C          0.88051100       0.74336000       0.13067000
   113  C          0.26841000       0.75644000       0.92623000
   114  C          0.23159000       0.24356000       0.42623000
   115  C          0.73159000       0.25644000       0.57377000
   116  C          0.76841000       0.74356000       0.07377000
   117  H          0.32368700       0.80231200       0.94806600
   118  H          0.17631300       0.19768800       0.44806600
   119  H          0.67631300       0.30231200       0.55193400
   120  H          0.82368700       0.69768800       0.05193400
   121  H          0.11208700       0.76554300       0.91995200
   122  H          0.38791300       0.23445700       0.41995200
   123  H          0.88791300       0.26554300       0.58004800
   124  H          0.61208700       0.73445700       0.08004800
   125  C          0.83361100       0.46435000       0.03603000
   126  C          0.66638900       0.53565000       0.53603000
   127  C          0.16638900       0.96435000       0.46397000
   128  C          0.33361100       0.03565000       0.96397000
   129  H          0.71358100       0.49707000       0.02225500
   130  H          0.78641900       0.50293000       0.52225500
   131  H          0.28641900      -0.00293000       0.47774500
   132  H          0.21358100       0.00293000       0.97774500
   133  H          0.78633300       0.40875600       0.03915500
   134  H          0.71366700       0.59124400       0.53915500
   135  H          0.21366700       0.90875600       0.46084500
   136  H          0.28633300       0.09124400       0.96084500
   137  H          0.87927900       0.48369500       0.07295900
   138  H          0.62072100       0.51630500       0.57295900
   139  H          0.12072100       0.98369500       0.42704100
   140  H          0.37927900       0.01630500       0.92704100
   141  C          0.08161300       0.45075000       0.73753000
   142  C          0.41838700       0.54925000       0.23753000
   143  C          0.91838700       0.95075000       0.76247000
   144  C          0.58161300       0.04925000       0.26247000
   145  C          0.10630000       0.42431500       0.68025000
   146  C          0.39370000       0.57568500       0.18025000
   147  C          0.89370000       0.92431500       0.81975000
   148  C          0.60630000       0.07568500       0.31975000
   149  H          0.13175100       0.36641800       0.68468500
   150  H          0.36824900       0.63358200       0.18468500
   151  H          0.86824900       0.86641800       0.81531500
   152  H          0.63175100       0.13358200       0.31531500
   153  H          0.95650600       0.42841100       0.66552200
   154  H          0.54349400       0.57158900       0.16552200
   155  H          0.04349400       0.92841100       0.83447800
   156  H          0.45650600       0.07158900       0.33447800
   157  C          0.30120000       0.46998000       0.76326000
   158  C          0.19880000       0.53002000       0.26326000
   159  C          0.69880000       0.96998000       0.73674000
   160  C          0.80120000       0.03002000       0.23674000
   161  H          0.28064100       0.48764800       0.80205600
   162  H          0.21935900       0.51235200       0.30205600
   163  H          0.71935900       0.98764800       0.69794400
   164  H          0.78064100       0.01235200       0.19794400
   165  H          0.39156300       0.42206100       0.76271900
   166  H          0.10843700       0.57793900       0.26271900
   167  H          0.60843700       0.92206100       0.73728100
   168  H          0.89156300       0.07793900       0.23728100
   169  H          0.37053400       0.51221400       0.74151600
   170  H          0.12946600       0.48778600       0.24151600
   171  H          0.62946600       0.01221400       0.75848400
   172  H          0.87053400       0.98778600       0.25848400
   173  C          0.95030000       0.52738000       0.74248000
   174  C          0.54970000       0.47262000       0.24248000
   175  C          0.04970000       0.02738000       0.75752000
   176  C          0.45030000       0.97262000       0.25752000
   177  H          0.93877700       0.54252700       0.78201800
   178  H          0.56122300       0.45747300       0.28201800
   179  H          0.06122300       0.04252700       0.71798200
   180  H          0.43877700       0.95747300       0.21798200
   181  H          0.02243300       0.56990800       0.72147400
   182  H          0.47756700       0.43009200       0.22147400
   183  H         -0.02243300       0.06990800       0.77852600
   184  H          0.52243300       0.93009200       0.27852600
   185  H          0.80534100       0.51861800       0.72700800
   186  H          0.69465900       0.48138200       0.22700800
   187  H          0.19465900       0.01861800       0.77299200
   188  H          0.30534100       0.98138200       0.27299200
   189  C          0.21340000       0.44031300       0.63976000
   190  C          0.28660000       0.55968700       0.13976000
   191  C          0.78660000       0.94031300       0.86024000
   192  C          0.71340000       0.05968700       0.36024000
   193  H          0.17253500       0.40521700       0.60854000
   194  H          0.32746500       0.59478300       0.10854000
   195  H          0.82746500       0.90521700       0.89146000
   196  H          0.67253500       0.09478300       0.39146000
   197  H          0.18796700       0.49587100       0.62899700
   198  H          0.31203300       0.50412900       0.12899700
   199  H          0.81203300      -0.00412900       0.87100300
   200  H          0.68796700       0.00412900       0.37100300
   201  H          0.36657100       0.43268900       0.64852700
   202  H          0.13342900       0.56731100       0.14852700
   203  H          0.63342900       0.93268900       0.85147300
   204  H          0.86657100       0.06731100       0.35147300
   205  H          0.88880000       0.59130000       0.88120000
   206  H          0.61120000       0.40870000       0.38120000
   207  H          0.11120000       0.09130000       0.61880000
   208  H          0.38880000       0.90870000       0.11880000
   209  H          0.06290000       0.53230000       0.98920000
   210  H          0.43710000       0.46770000       0.48920000
   211  H          0.93710000       0.03230000       0.51080000
   212  H          0.56290000       0.96770000       0.01080000
   213  H          0.85290000       0.33930000       0.94720000
   214  H          0.64710000       0.66070000       0.44720000
   215  H          0.14710000       0.83930000       0.55280000
   216  H          0.35290000       0.16070000       0.05280000
   217  H          0.84190000       0.61030000       0.94530000
   218  H          0.65810000       0.38970000       0.44530000
   219  H          0.15810000       0.11030000       0.55470000
   220  H          0.34190000       0.88970000       0.05470000
   221  H          0.42311000       0.32530000       0.00520000
   222  H          0.07689000       0.67470000       0.50520000
   223  H          0.57689000       0.82530000       0.49480000
   224  H          0.92311000       0.17470000      -0.00520000
   225  H          0.49590000       0.59530000       0.86520000
   226  H          0.00410000       0.40470000       0.36520000
   227  H          0.50410000       0.09530000       0.63480000
   228  H         -0.00410000       0.90470000       0.13480000
   229  H          0.40012000       0.23340000       0.92130000
   230  H          0.09988000       0.76660000       0.42130000
   231  H          0.59988000       0.73340000       0.57870000
   232  H          0.90012000       0.26660000       0.07870000
   233  H          0.17390000       0.15140000       0.87020000
   234  H          0.32610000       0.84860000       0.37020000
   235  H          0.82610000       0.65140000       0.62980000
   236  H          0.67390000       0.34860000       0.12980000
   237  H          0.07710000       0.47130000       0.91220000
   238  H          0.42290000       0.52870000       0.41220000
   239  H          0.92290000       0.97130000       0.58780000
   240  H          0.57710000       0.02870000       0.08780000
   241  H          0.41511000       0.81440000       0.85120000
   242  H          0.08489000       0.18560000       0.35120000
   243  H          0.58489000       0.31440000       0.64880000
   244  H          0.91511000       0.68560000       0.14880000
   245  H          0.72480000       0.34030000       0.85931800
   246  H          0.77520000       0.65970000       0.35931800
   247  H          0.27520000       0.84030000       0.64068200
   248  H          0.22480000       0.15970000       0.14068200
   249  H          0.89212000       0.21840000       0.80430000
   250  H          0.60788000       0.78160000       0.30430000
   251  H          0.10788000       0.71840000       0.69570000
   252  H          0.39212000       0.28160000       0.19570000
   253  H          0.29712000       0.44040000       0.04330000
   254  H          0.20288000       0.55960000       0.54330000
   255  H          0.70288000       0.94040000       0.45670000
   256  H          0.79712000       0.05960000       0.95670000
   257  H          0.83717000       0.21960000       0.87540000
   258  H          0.66283000       0.78040000       0.37540000
   259  H          0.16283000       0.71960000       0.62460000
   260  H          0.33717000       0.28040000       0.12460000
   261  H          0.24619000       0.74660000       0.80140000
   262  H          0.25381000       0.25340000       0.30140000
   263  H          0.75381000       0.24660000       0.69860000
   264  H          0.74619000       0.75340000       0.19860000
   265  H          0.71810000       0.47430000       0.87130000
   266  H          0.78190000       0.52570000       0.37130000
   267  H          0.28190000       0.97430000       0.62870000
   268  H          0.21810000       0.02570000       0.12870000
   269  H          0.64110000       0.47230000       0.93520000
   270  H          0.85890000       0.52770000       0.43520000
   271  H          0.35890000       0.97230000       0.56480000
   272  H          0.14110000       0.02770000       0.06480000
