data_EJEQAL08
_symmetry_space_group_name_H-M    'P1'
_symmetry_Int_Tables_number       1
loop_
_symmetry_equiv_pos_site_id
_symmetry_equiv_pos_as_xyz
1 x,y,z
_cell_length_a                   6.11452
_cell_length_b                   17.29016
_cell_length_c                   22.43348
_cell_angle_alpha                90.0
_cell_angle_beta                 90.0
_cell_angle_gamma                90.0
loop_
_atom_site_label
_atom_site_type_symbol
_atom_site_fract_x
_atom_site_fract_y
_atom_site_fract_z
     1  O          0.50874000       0.12373150       0.17905120
     2  O         -0.00874000       0.87626850       0.67905120
     3  O          0.49126000       0.62373150       0.32094880
     4  O          0.00874000       0.37626850       0.82094880
     5  C          0.46326000       0.05242000       0.06738160
     6  C          0.03674000       0.94758000       0.56738160
     7  C          0.53674000       0.55242000       0.43261840
     8  C          0.96326000       0.44758000       0.93261840
     9  H          0.58127500       0.03491000       0.09368100
    10  H          0.91872500       0.96509000       0.59368100
    11  H          0.41872500       0.53491000       0.40631900
    12  H          0.08127500       0.46509000       0.90631900
    13  O          0.94174000       0.88413830       0.05054150
    14  O          0.55826000       0.11586170       0.55054150
    15  O          0.05826000       0.38413830       0.44945850
    16  O          0.44174000       0.61586170       0.94945850
    17  C          0.37456000       0.16712000       0.13700170
    18  C          0.12544000       0.83288000       0.63700170
    19  C          0.62544000       0.66712000       0.36299830
    20  C          0.87456000       0.33288000       0.86299830
    21  H          0.22083700       0.15274000       0.14262800
    22  H          0.27916300       0.84726000       0.64262800
    23  H          0.77916300       0.65274000       0.35737200
    24  H          0.72083700       0.34726000       0.85737200
    25  C          0.44816000       0.14142000       0.07498160
    26  C          0.05184000       0.85858000       0.57498160
    27  C          0.55184000       0.64142000       0.42501840
    28  C          0.94816000       0.35858000       0.92501840
    29  H          0.33699000       0.15960700       0.04680300
    30  H          0.16301000       0.84039300       0.54680300
    31  H          0.66301000       0.65960700       0.45319700
    32  H          0.83699000       0.34039300       0.95319700
    33  C          0.25587000       0.01082000       0.08806190
    34  C          0.24413000       0.98918000       0.58806190
    35  C          0.74413000       0.51082000       0.41193810
    36  C          0.75587000       0.48918000       0.91193810
    37  H          0.13670100       0.02381900       0.06131600
    38  H          0.36329900       0.97618100       0.56131600
    39  H          0.86329900       0.52381900       0.43868400
    40  H          0.63670100       0.47618100       0.93868400
    41  H          0.21703200       0.02913700       0.12753200
    42  H          0.28296800       0.97086300       0.62753200
    43  H          0.78296800       0.52913700       0.37246800
    44  H          0.71703200       0.47086300       0.87246800
    45  C          0.53267000       0.03122000       0.00370180
    46  C          0.96733000       0.96878000       0.50370180
    47  C          0.46733000       0.53122000       0.49629820
    48  C          0.03267000       0.46878000      -0.00370180
    49  H          0.58254300       0.97734700       0.00470200
    50  H          0.91745700       0.02265300       0.50470200
    51  H          0.41745700       0.47734700       0.49529800
    52  H          0.08254300       0.52265300      -0.00470200
    53  C          0.66116000       0.18012000       0.05780180
    54  C          0.83884000       0.81988000       0.55780180
    55  C          0.33884000       0.68012000       0.44219820
    56  C          0.16116000       0.31988000       0.94219820
    57  C          0.07517000       0.87968000       0.10418180
    58  C          0.42483000       0.12032000       0.60418180
    59  C          0.92483000       0.37968000       0.39581820
    60  C          0.57517000       0.62032000       0.89581820
    61  H         -0.00100900       0.90651700       0.13657800
    62  H          0.50100900       0.09348300       0.63657800
    63  H          0.00100900       0.40651700       0.36342200
    64  H          0.49899100       0.59348300       0.86342200
    65  C          0.28137000       0.92268000       0.09002000
    66  C          0.21863000       0.07732000       0.59002000
    67  C          0.71863000       0.42268000       0.40998000
    68  C          0.78137000       0.57732000       0.90998000
    69  H          0.33518500       0.90528000       0.05157700
    70  H          0.16481500       0.09472000       0.55157700
    71  H          0.66481500       0.40528000       0.44842300
    72  H          0.83518500       0.59472000       0.94842300
    73  H          0.39085100       0.90976700       0.11959900
    74  H          0.10914900       0.09023300       0.61959900
    75  H          0.60914900       0.40976700       0.38040100
    76  H          0.89085100       0.59023300       0.88040100
    77  C          0.43649000       0.11643000       0.23462000
    78  C          0.06351000       0.88357000       0.73462000
    79  C          0.56351000       0.61643000       0.26538000
    80  C          0.93649000       0.38357000       0.76538000
    81  C          0.78007000       0.14433000       0.00868190
    82  C          0.71993000       0.85567000       0.50868190
    83  C          0.21993000       0.64433000       0.49131810
    84  C          0.28007000       0.35567000       0.99131810
    85  H          0.90428000       0.16914600      -0.00560900
    86  H          0.59572000       0.83085400       0.49439100
    87  H          0.09572000       0.66914600       0.50560900
    88  H          0.40428000       0.33085400       0.00560900
    89  O          0.27358000       0.14943000       0.25204160
    90  O          0.22642000       0.85057000       0.75204160
    91  O          0.72642000       0.64943000       0.24795840
    92  O          0.77358000       0.35057000       0.74795840
    93  C          0.73707000       0.24312000       0.08452000
    94  C          0.76293000       0.75688000       0.58452000
    95  C          0.26293000       0.74312000       0.41548000
    96  C          0.23707000       0.25688000       0.91548000
    97  H          0.86868900       0.26318000       0.07070200
    98  H          0.63131100       0.73682000       0.57070200
    99  H          0.13131100       0.76318000       0.42929800
   100  H          0.36868900       0.23682000       0.92929800
   101  C          0.62948000       0.28413000       0.13472000
   102  C          0.87052000       0.71587000       0.63472000
   103  C          0.37052000       0.78413000       0.36528000
   104  C          0.12948000       0.21587000       0.86528000
   105  H          0.61554600       0.33851600       0.12292500
   106  H          0.88445400       0.66148400       0.62292500
   107  H          0.38445400       0.83851600       0.37707500
   108  H          0.11554600       0.16148400       0.87707500
   109  O          0.70102000       0.83888000       0.98918000
   110  O          0.79898000       0.16112000       0.48918000
   111  O          0.29898000       0.33888000       0.51082000
   112  O          0.20102000       0.66112000       0.01082000
   113  C          0.80273000       0.82907000       0.03402000
   114  C          0.69727000       0.17093000       0.53402000
   115  C          0.19727000       0.32907000       0.46598000
   116  C          0.30273000       0.67093000       0.96598000
   117  C          0.89941000       0.75387000       0.12792000
   118  C          0.60059000       0.24613000       0.62792000
   119  C          0.10059000       0.25387000       0.37208000
   120  C          0.39941000       0.74613000       0.87208000
   121  H          0.92894900       0.69999000       0.13881400
   122  H          0.57105100       0.30001000       0.63881400
   123  H          0.07105100       0.19999000       0.36118600
   124  H          0.42894900       0.80001000       0.86118600
   125  C          0.72168000       0.07903000       0.98348000
   126  C          0.77832000       0.92097000       0.48348000
   127  C          0.27832000       0.57903000       0.51652000
   128  C          0.22168000       0.42097000       0.01652000
   129  H          0.80291100       0.06149300       0.95115900
   130  H          0.69708900       0.93850700       0.45115900
   131  H          0.19708900       0.56149300       0.54884100
   132  H          0.30291100       0.43850700       0.04884100
   133  C          0.39817000       0.25352000       0.14492000
   134  C          0.10183000       0.74648000       0.64492000
   135  C          0.60183000       0.75352000       0.35508000
   136  C          0.89817000       0.24648000       0.85508000
   137  H          0.35269700       0.26705600       0.18497100
   138  H          0.14730300       0.73294400       0.68497100
   139  H          0.64730300       0.76705600       0.31502900
   140  H          0.85269700       0.23294400       0.81502900
   141  H          0.29967300       0.27923400       0.11735000
   142  H          0.20032700       0.72076600       0.61735000
   143  H          0.70032700       0.77923400       0.38265000
   144  H          0.79967300       0.22076600       0.88265000
   145  C          0.11279000       0.79677000       0.12242000
   146  C          0.38721000       0.20323000       0.62242000
   147  C          0.88721000       0.29677000       0.37758000
   148  C          0.61279000       0.70323000       0.87758000
   149  H          0.20420900       0.77142200       0.09298100
   150  H          0.29579100       0.22857800       0.59298100
   151  H          0.79579100       0.27142200       0.40701900
   152  H          0.70420900       0.72857800       0.90701900
   153  H          0.18883000       0.79547400       0.16032800
   154  H          0.31117000       0.20452600       0.66032800
   155  H          0.81117000       0.29547400       0.33967200
   156  H          0.68883000       0.70452600       0.83967200
   157  C          0.78492000       0.75597000       0.06843000
   158  C          0.71508000       0.24403000       0.56843000
   159  C          0.21508000       0.25597000       0.43157000
   160  C          0.28492000       0.74403000       0.93157000
   161  H          0.84280100       0.71437500       0.04406600
   162  H          0.65719900       0.28562500       0.54406600
   163  H          0.15719900       0.21437500       0.45593400
   164  H          0.34280100       0.78562500       0.95593400
   165  H          0.63115000       0.74531900       0.07498600
   166  H          0.86885000       0.25468100       0.57498600
   167  H          0.36885000       0.24531900       0.42501400
   168  H          0.13115000       0.75468100       0.92501400
   169  O          0.76641000       0.78847000       0.17242000
   170  O          0.73359000       0.21153000       0.67242000
   171  O          0.23359000       0.28847000       0.32758000
   172  O          0.26641000       0.71153000       0.82758000
   173  H          0.73813100       0.75644600       0.19825700
   174  H          0.76186900       0.24355400       0.69825700
   175  H          0.26186900       0.25644600       0.30174300
   176  H          0.23813100       0.74355400       0.80174300
   177  C          0.34729000       0.03563000       0.95718000
   178  C          0.15271000       0.96437000       0.45718000
   179  C          0.65271000       0.53563000       0.54282000
   180  C          0.84729000       0.46437000       0.04282000
   181  H          0.22574100       0.00479300       0.97027000
   182  H          0.27425900      -0.00479300       0.47027000
   183  H          0.77425900       0.50479300       0.52973000
   184  H          0.72574100       0.49520700       0.02973000
   185  H          0.30121900       0.08837400       0.95265300
   186  H          0.19878100       0.91162600       0.45265300
   187  H          0.69878100       0.58837400       0.54734700
   188  H          0.80121900       0.41162600       0.04734700
   189  H          0.39920900       0.01639900       0.91959600
   190  H          0.10079100       0.98360100       0.41959600
   191  H          0.60079100       0.51639900       0.58040400
   192  H          0.89920900       0.48360100       0.08040400
   193  C          0.77471100       0.28194000       0.19053000
   194  C          0.72528900       0.71806000       0.69053000
   195  C          0.22528900       0.78194000       0.30947000
   196  C          0.27471100       0.21806000       0.80947000
   197  H          0.70289200       0.30867300       0.22252600
   198  H          0.79710800       0.69132700       0.72252600
   199  H          0.29710800       0.80867300       0.27747400
   200  H          0.20289200       0.19132700       0.77747400
   201  H          0.79999700       0.22914800       0.20188400
   202  H          0.70000300       0.77085200       0.70188400
   203  H          0.20000300       0.72914800       0.29811600
   204  H          0.29999700       0.27085200       0.79811600
   205  H          0.91189700       0.30657500       0.18208400
   206  H          0.58810300       0.69342500       0.68208400
   207  H          0.08810300       0.80657500       0.31791600
   208  H          0.41189700       0.19342500       0.81791600
   209  C          0.56891100       0.06304000       0.27152000
   210  C          0.93108900       0.93696000       0.77152000
   211  C          0.43108900       0.56304000       0.22848000
   212  C          0.06891100       0.43696000       0.72848000
   213  C          0.68540000       0.01079000       0.24044000
   214  C          0.81460000       0.98921000       0.74044000
   215  C          0.31460000       0.51079000       0.25956000
   216  C          0.18540000       0.48921000       0.75956000
   217  H          0.78585500       0.03894500       0.21504000
   218  H          0.71414500       0.96105500       0.71504000
   219  H          0.21414500       0.53894500       0.28496000
   220  H          0.28585500       0.46105500       0.78496000
   221  H          0.58412800       0.98379000       0.21422600
   222  H          0.91587200       0.01621000       0.71422600
   223  H          0.41587200       0.48379000       0.28577400
   224  H          0.08412800       0.51621000       0.78577400
   225  C          0.67540000       0.10908000       0.31951000
   226  C          0.82460000       0.89092000       0.81951000
   227  C          0.32460000       0.60908000       0.18049000
   228  C          0.17540000       0.39092000       0.68049000
   229  H          0.56903500       0.14332100       0.33692000
   230  H          0.93096500       0.85667900       0.83692000
   231  H          0.43096500       0.64332100       0.16308000
   232  H          0.06903500       0.35667900       0.66308000
   233  H          0.73042400       0.07479400       0.34952200
   234  H          0.76957600       0.92520600       0.84952200
   235  H          0.26957600       0.57479400       0.15047800
   236  H          0.23042400       0.42520600       0.65047800
   237  H          0.79269200       0.13869500       0.30294300
   238  H          0.70730800       0.86130500       0.80294300
   239  H          0.20730800       0.63869500       0.19705700
   240  H          0.29269200       0.36130500       0.69705700
   241  C          0.42130000       0.01951700       0.31071300
   242  C          0.07870000       0.98048300       0.81071300
   243  C          0.57870000       0.51951700       0.18928700
   244  C          0.92130000       0.48048300       0.68928700
   245  H          0.33487700       0.05492600       0.33375300
   246  H          0.16512300       0.94507400       0.83375300
   247  H          0.66512300       0.55492600       0.16624700
   248  H          0.83487700       0.44507400       0.66624700
   249  H          0.32628500       0.98769300       0.28692700
   250  H          0.17371500       0.01230700       0.78692700
   251  H          0.67371500       0.48769300       0.21307300
   252  H          0.82628500       0.51230700       0.71307300
   253  H          0.50541400       0.98734800       0.33692200
   254  H         -0.00541400       0.01265200       0.83692200
   255  H          0.49458600       0.48734800       0.16307800
   256  H          0.00541400       0.51265200       0.66307800
   257  C          0.81740000       0.94961000       0.27367000
   258  C          0.68260000       0.05039000       0.77367000
   259  C          0.18260000       0.44961000       0.22633000
   260  C          0.31740000       0.55039000       0.72633000
   261  H          0.88985700       0.91689500       0.24538700
   262  H          0.61014300       0.08310500       0.74538700
   263  H          0.11014300       0.41689500       0.25461300
   264  H          0.38985700       0.58310500       0.75461300
   265  H          0.92295100       0.97456000       0.29855400
   266  H          0.57704900       0.02544000       0.79855400
   267  H          0.07704900       0.47456000       0.20144600
   268  H          0.42295100       0.52544000       0.70144600
   269  H          0.72013100       0.91910600       0.29773500
   270  H          0.77986900       0.08089400       0.79773500
   271  H          0.27986900       0.41910600       0.20226500
   272  H          0.22013100       0.58089400       0.70226500
