data_EJEQAL04
_symmetry_space_group_name_H-M    'P1'
_symmetry_Int_Tables_number       1
loop_
_symmetry_equiv_pos_site_id
_symmetry_equiv_pos_as_xyz
1 x,y,z
_cell_length_a                   5.98745
_cell_length_b                   16.105615
_cell_length_c                   23.444319
_cell_angle_alpha                90.0
_cell_angle_beta                 90.042
_cell_angle_gamma                90.0
loop_
_atom_site_label
_atom_site_type_symbol
_atom_site_fract_x
_atom_site_fract_y
_atom_site_fract_z
     1  O         -0.02225000       0.33288150       0.58086900
     2  O          0.02225000       0.83288150       0.41913100
     3  O          0.55325000       0.07891160       0.69325100
     4  O          0.44675000       0.57891160       0.30674900
     5  O          0.79756000       0.02280180       0.74864110
     6  O          0.20244000       0.52280180       0.25135890
     7  C          0.02487000       0.35692000       0.68061130
     8  C          0.97513000       0.85692000       0.31938870
     9  H          0.13734400       0.37814300       0.70854700
    10  H          0.86265600       0.87814300       0.29145300
    11  C          0.81338000       0.50132000       0.61802150
    12  C          0.18662000       0.00132000       0.38197850
    13  H          0.81227400       0.56213500       0.62656900
    14  H          0.18772600       0.06213500       0.37343100
    15  O          0.73556000      -0.00248190       0.56978120
    16  O          0.26444000       0.49751810       0.43021880
    17  H          0.76773100       0.96762900       0.54159800
    18  H          0.23226900       0.46762900       0.45840200
    19  O          0.22446000       0.36137180       0.51123100
    20  O          0.77554000       0.86137180       0.48876900
    21  C          0.80128000       0.39412000       0.69640140
    22  C          0.19872000       0.89412000       0.30359860
    23  C          0.22868000       0.21772000       0.66617150
    24  C          0.77132000       0.71772000       0.33382850
    25  H          0.27170500       0.24158400       0.62884700
    26  H          0.72829500       0.74158400       0.37115300
    27  H          0.35121500       0.22910200       0.69341900
    28  H          0.64878500       0.72910200       0.30658100
    29  C          0.95008000       0.23682000       0.74905130
    30  C          0.04992000       0.73682000       0.25094870
    31  H          0.89756000       0.17787300       0.74761500
    32  H          0.10244000       0.67787300       0.25238500
    33  C          0.01487000       0.26122000       0.68727130
    34  C         -0.01487000       0.76122000       0.31272870
    35  H          0.89064400       0.24150400       0.66211800
    36  H          0.10935600       0.74150400       0.33788200
    37  C          0.75678000       0.28792000       0.77062140
    38  C          0.24322000       0.78792000       0.22937860
    39  H          0.67883400       0.26885300       0.80341500
    40  H          0.32116600       0.76885300       0.19658500
    41  C          0.71018000       0.45852000       0.66831140
    42  C          0.28982000       0.95852000       0.33168860
    43  H          0.56962000       0.47837300       0.68128300
    44  H          0.43038000       0.97837300       0.31871700
    45  C          0.41327000       0.08052000       0.64200140
    46  C          0.58673000       0.58052000       0.35799860
    47  H          0.48926400       0.11484500       0.61222300
    48  H          0.51073600       0.61484500       0.38777700
    49  C          0.68918000       0.35812000       0.74622140
    50  C          0.31082000       0.85812000       0.25377860
    51  H          0.56322300       0.38611100       0.76169100
    52  H          0.43677700       0.88611100       0.23830900
    53  C          0.20188000       0.12362000       0.65973140
    54  C          0.79812000       0.62362000       0.34026860
    55  H          0.15105600       0.10018700       0.69653800
    56  H          0.84894400       0.60018700       0.30346200
    57  H          0.08447100       0.11230100       0.63099600
    58  H          0.91552900       0.61230100       0.36900400
    59  C          0.67468000       0.48903000       0.56420160
    60  C          0.32532000       0.98903000       0.43579840
    61  H          0.74640300       0.51763900       0.53221200
    62  H          0.25359700       0.01763900       0.46778800
    63  H          0.66350300       0.42956400       0.55566000
    64  H          0.33649700       0.92956400       0.44434000
    65  H          0.52469800       0.51183200       0.57009000
    66  H          0.47530200       0.01183200       0.42991000
    67  C          0.69578000       0.01762000       0.70520150
    68  C          0.30422000       0.51762000       0.29479850
    69  C          0.71829000       0.94428000       0.66563160
    70  C          0.28171000       0.44428000       0.33436840
    71  H          0.87912200       0.93501500       0.65835900
    72  H          0.12087800       0.43501500       0.34164100
    73  H          0.66078600       0.89453300       0.68562500
    74  H          0.33921400       0.39453300       0.31437500
    75  C          0.05678000       0.47612000       0.61066140
    76  C          0.94322000       0.97612000       0.38933860
    77  H          0.10480200       0.49062700       0.57151800
    78  H          0.89519800       0.99062700       0.42848200
    79  H          0.14914800       0.50869000       0.63759500
    80  H          0.85085200       0.00869000       0.36240500
    81  C          0.10037000       0.38462000       0.62056130
    82  C          0.89963000       0.88462000       0.37943870
    83  H          0.26377600       0.37352500       0.61625000
    84  H          0.73622400       0.87352500       0.38375000
    85  C          0.60168000       0.95058000       0.60924150
    86  C          0.39832000       0.45058000       0.39075850
    87  H          0.57484300       0.89372000       0.59362400
    88  H          0.42515700       0.39372000       0.40637600
    89  C          0.06428000       0.32372000       0.52845130
    90  C          0.93572000       0.82372000       0.47154870
    91  C          0.14188000       0.23973000       0.79158150
    92  C          0.85812000       0.73973000       0.20841850
    93  H          0.26658900       0.20632300       0.77720400
    94  H          0.73341100       0.70632300       0.22279600
    95  H          0.19059600       0.29727600       0.79665600
    96  H          0.80940400       0.79727600       0.20334400
    97  H          0.09182400       0.21724700       0.82827300
    98  H          0.90817600       0.71724700       0.17172700
    99  C          0.37978000      -0.00622000       0.61897150
   100  C          0.62022000       0.49378000       0.38102850
   101  H          0.29635800      -0.00340300       0.58253000
   102  H          0.70364200       0.49659700       0.41747000
   103  H          0.28952200       0.96109900       0.64633800
   104  H          0.71047800       0.46109900       0.35366200
   105  C          0.93728000       0.26082000       0.49278140
   106  C          0.06272000       0.76082000       0.50721860
   107  C          0.72641000       0.22733000       0.52334190
   108  C          0.27359000       0.72733000       0.47665810
   109  H          0.76993400       0.20073300       0.55925700
   110  H          0.23006600       0.70073300       0.44074300
   111  H          0.62421200       0.27344800       0.53131600
   112  H          0.37578800       0.77344800       0.46868400
   113  H          0.65156600       0.18667800       0.49880000
   114  H          0.34843400       0.68667800       0.50120000
   115  C          0.10111000       0.18863000       0.48352000
   116  C          0.89889000       0.68863000       0.51648000
   117  H          0.13438400       0.16225400       0.52018700
   118  H          0.86561600       0.66225400       0.47981300
   119  H          0.03379900       0.14777200       0.45771400
   120  H          0.96620100       0.64777200       0.54228600
   121  H          0.23951300       0.20987700       0.46664900
   122  H          0.76048700       0.70987700       0.53335100
   123  C          0.88231000       0.30303000       0.43664160
   124  C          0.11769000       0.80303000       0.56335840
   125  H          0.78606100       0.35161200       0.44469300
   126  H          0.21393900       0.85161200       0.55530700
   127  H          0.02293600       0.32413700       0.41987300
   128  H         -0.02293600       0.82413700       0.58012700
   129  C          0.76711200       0.24973000       0.39286170
   130  C          0.23288800       0.74973000       0.60713830
   131  H          0.73916800       0.28253200       0.35837700
   132  H          0.26083200       0.78253200       0.64162300
   133  H          0.86238000       0.20221600       0.38340200
   134  H          0.13762000       0.70221600       0.61659800
   135  H          0.62485300       0.22976800       0.40829000
   136  H          0.37514700       0.72976800       0.59171000
   137  O          0.06805000       0.82974160       0.80256100
   138  O          0.93195000       0.32974160       0.19743900
   139  O          0.43505000       0.59220140       0.93568900
   140  O          0.56495000       0.09220140       0.06431100
   141  O          0.29847000       0.87632190       0.73683110
   142  O          0.70153000       0.37632190       0.26316890
   143  C          0.72788000       0.70112000       0.84519130
   144  C          0.27212000       0.20112000       0.15480870
   145  H          0.85245200       0.68189800       0.82079100
   146  H          0.14754800       0.18189800       0.17920900
   147  H          0.76141900       0.68424100       0.88489500
   148  H          0.23858100       0.18424100       0.11510500
   149  C          0.71488000       0.79582000       0.84235140
   150  C          0.28512000       0.29582000       0.15764860
   151  H          0.66364300       0.81213500       0.80378600
   152  H          0.33635700       0.31213500       0.19621400
   153  H          0.60137900       0.81516300       0.87002800
   154  H          0.39862100       0.31516300       0.12997200
   155  O          0.66225000       0.56890170       0.00898100
   156  O          0.33775000       0.06890170       0.99101900
   157  C          0.51427000       0.56322000       0.83719130
   158  C          0.48573000       0.06322000       0.16280870
   159  H          0.63189800       0.53861000       0.81209300
   160  H          0.36810200       0.03861000       0.18790700
   161  C          0.51328000       0.65862000       0.82601130
   162  C          0.48672000       0.15862000       0.17398870
   163  H          0.38919400       0.68257700       0.84933300
   164  H          0.61080600       0.18257700       0.15066700
   165  O          0.27076000       0.93001180       0.91409110
   166  O          0.72924000       0.43001180       0.08590890
   167  H          0.30660000       0.96330500       0.94009700
   168  H          0.69340000       0.46330500       0.05990300
   169  C          0.26818000       0.62542000       0.74296140
   170  C          0.73182000       0.12542000       0.25703860
   171  H          0.19666800       0.64126200       0.70843900
   172  H          0.80333200       0.14126200       0.29156100
   173  C          0.29438000       0.41912000       0.89993140
   174  C          0.70562000       0.91912000       0.10006860
   175  H          0.30128100       0.35840000       0.89110400
   176  H          0.69871900       0.85840000       0.10889600
   177  C          0.29507000       0.52432000       0.82010130
   178  C          0.70493000       0.02432000       0.17989870
   179  C          0.19068000       0.55852000       0.76985140
   180  C          0.80932000       0.05852000       0.23014860
   181  H          0.06068500       0.53211400       0.75527000
   182  H          0.93931500       0.03211400       0.24473000
   183  C          0.90658000       0.92842000       0.87179140
   184  C          0.09342000       0.42842000       0.12820860
   185  H          0.80924600       0.95720400       0.84393100
   186  H          0.19075400       0.45720400       0.15606900
   187  H          0.83421700       0.93167300       0.90968200
   188  H          0.16578300       0.43167300       0.09031800
   189  C          0.20308000       0.88812000       0.78207150
   190  C          0.79692000       0.38812000       0.21792850
   191  C          0.93178000       0.83892000       0.85476140
   192  C          0.06822000       0.33892000       0.14523860
   193  H          0.00821700       0.80867200       0.88650500
   194  H         -0.00821700       0.30867200       0.11349500
   195  C          0.45887000       0.67732000       0.76305130
   196  C          0.54113000       0.17732000       0.23694870
   197  H          0.40843500       0.73643800       0.76126800
   198  H          0.59156500       0.23643800       0.23873200
   199  C          0.57358000       0.54022000       0.89829140
   200  C          0.42642000       0.04022000       0.10170860
   201  H          0.73442500       0.55342300       0.90521300
   202  H          0.26557500       0.05342300       0.09478700
   203  C          0.20097000       0.46062000       0.84857140
   204  C          0.79903000       0.96062000       0.15142860
   205  H          0.06238000       0.44031600       0.83451800
   206  H          0.93762000       0.94031600       0.16548200
   207  C          0.50657000       0.60702000       0.98836140
   208  C          0.49343000       0.10702000       0.01163860
   209  C          0.23748000       0.96782000       0.81496150
   210  C          0.76252000       0.46782000       0.18503850
   211  H          0.17727000       0.01424200       0.79196100
   212  H          0.82273000       0.51424200       0.20803900
   213  H          0.39992000       0.97704500       0.81935900
   214  H          0.60008000       0.47704500       0.18064100
   215  C          0.53478000       0.44782000       0.90979150
   216  C          0.46522000       0.94782000       0.09020850
   217  H          0.63492100       0.41509500       0.88480800
   218  H          0.36507900       0.91509500       0.11519200
   219  H          0.57651300       0.43563500       0.94979300
   220  H          0.42348700       0.93563500       0.05020700
   221  C          0.12988000       0.97102000       0.87410150
   222  C          0.87012000       0.47102000       0.12589850
   223  H          0.10912600       0.03019800       0.88584900
   224  H          0.89087400       0.53019800       0.11415100
   225  C          0.66058000       0.66913000       0.72191140
   226  C          0.33942000       0.16913000       0.27808860
   227  H          0.78401800       0.70356600       0.73576700
   228  H          0.21598200       0.20356600       0.26423300
   229  H          0.70834000       0.61097300       0.72026300
   230  H          0.29166000       0.11097300       0.27973700
   231  H          0.61642800       0.68762600       0.68370000
   232  H          0.38357200       0.18762600       0.31630000
   233  C          0.44861000       0.75722000       0.98380160
   234  C          0.55139000       0.25722000       0.01619840
   235  H          0.40233300       0.75204000       0.94385300
   236  H          0.59766700       0.25204000       0.05614700
   237  H          0.37588000       0.80571000       0.00089700
   238  H          0.62412000       0.30571000      -0.00089700
   239  H          0.61111200       0.76406700       0.98570300
   240  H          0.38888800       0.26406700       0.01429700
   241  C          0.38027000       0.67822000       0.01680140
   242  C          0.61973000       0.17822000       0.98319860
   243  C          0.13828000       0.42883000       0.95222160
   244  C          0.86172000       0.92883000       0.04777840
   245  H          0.20464800       0.40080600       0.98523700
   246  H          0.79535200       0.90080600       0.01476300
   247  H          0.11840800       0.48788500       0.96081000
   248  H          0.88159200       0.98788500       0.03919000
   249  H         -0.00730800       0.40381400       0.94366400
   250  H          0.00730800       0.90381400       0.05633600
   251  C          0.45368000       0.68782000       0.07841140
   252  C          0.54632000       0.18782000       0.92158860
   253  H          0.39753200       0.74177700       0.09262600
   254  H          0.60246800       0.24177700       0.90737400
   255  H          0.61883400       0.69022400       0.07924200
   256  H          0.38116600       0.19022400       0.92075800
   257  C          0.12958000       0.66553000       0.01258180
   258  C          0.87042000       0.16553000       0.98741820
   259  H          0.08681500       0.65948900       0.97242600
   260  H          0.91318500       0.15948900       0.02757400
   261  H          0.08740000       0.61524300       0.03354600
   262  H          0.91260000       0.11524300       0.96645400
   263  H          0.05251100       0.71353900       0.02902500
   264  H          0.94748900       0.21353900       0.97097500
   265  C          0.37829000       0.62023000       0.11981150
   266  C          0.62171000       0.12023000       0.88018850
   267  H          0.43477400       0.63263200       0.15808900
   268  H          0.56522600       0.13263200       0.84191100
   269  H          0.21460700       0.61808500       0.12065900
   270  H          0.78539300       0.11808500       0.87934100
   271  H          0.43664400       0.56636100       0.10723000
   272  H          0.56335600       0.06636100       0.89277000
