data_EJOGUH02
_symmetry_space_group_name_H-M    'P1'
_symmetry_Int_Tables_number       1
loop_
_symmetry_equiv_pos_site_id
_symmetry_equiv_pos_as_xyz
1 x,y,z
_cell_length_a                   10.58457
_cell_length_b                   11.62307
_cell_length_c                   12.43739
_cell_angle_alpha                110.9132
_cell_angle_beta                 90.7862
_cell_angle_gamma                93.9122
loop_
_atom_site_label
_atom_site_type_symbol
_atom_site_fract_x
_atom_site_fract_y
_atom_site_fract_z
     1  C          0.30795000       0.04335000       0.54685000
     2  C          0.69205000       0.95665000       0.45315000
     3  C          0.34944000       0.79944000       0.26044000
     4  C          0.65056000       0.20056000       0.73956000
     5  C          0.36534000       0.79794000       0.46374000
     6  C          0.63466000       0.20206000       0.53626000
     7  C          0.29106000       0.04336000       0.34856000
     8  C          0.70894000       0.95664000       0.65144000
     9  C          0.34444000       0.85694000       0.38274000
    10  C          0.65556000       0.14306000       0.61726000
    11  C          0.32997000      -0.01484000       0.61956000
    12  C          0.67003000       0.01484000       0.38044000
    13  C          0.31424000       0.98294000       0.42645000
    14  C          0.68576000       0.01706000       0.57355000
    15  C          0.29787000      -0.01404000       0.23437000
    16  C          0.70213000       0.01404000       0.76563000
    17  C          0.32766000       0.86286000       0.18885000
    18  C          0.67234000       0.13714000       0.81115000
    19  C          0.35846000       0.86126000       0.57835000
    20  C          0.64154000       0.13874000       0.42165000
    21  N          0.39234000       0.66793000       0.41913000
    22  N          0.60766000       0.33207000       0.58087000
    23  N          0.37704000       0.66964000       0.21263000
    24  N          0.62296000       0.33036000       0.78737000
    25  C          0.51787000       0.64567000       0.45867000
    26  C          0.48213000       0.35433000       0.54133000
    27  C          0.29047000       0.58726000       0.44437000
    28  C          0.70953000       0.41274000       0.55563000
    29  C          0.26281200       0.59138000       0.14588000
    30  C          0.73718800       0.40862000       0.85412000
    31  C          0.49531700       0.65191400       0.14841300
    32  C          0.50468300       0.34808600       0.85158700
    33  H          0.28250000       0.12650000       0.57150000
    34  H          0.71750000       0.87350000       0.42850000
    35  H          0.53250000       0.55960000       0.41550000
    36  H          0.46750000       0.44040000       0.58450000
    37  H          0.21370000       0.60760000       0.41760000
    38  H          0.78630000       0.39240000       0.58240000
    39  H          0.30560000       0.50960000       0.40950000
    40  H          0.69440000       0.49040000       0.59050000
    41  H          0.37940000       0.83140000       0.62040000
    42  H          0.62060000       0.16860000       0.37960000
    43  H          0.33250000       0.82450000       0.11850000
    44  H          0.66750000       0.17550000       0.88150000
    45  H          0.26950000       0.11950000       0.37750000
    46  H          0.73050000       0.88050000       0.62250000
    47  H          0.50870000       0.56570000       0.12860000
    48  H          0.49130000       0.43430000       0.87140000
    49  H          0.58070000       0.69670000       0.43660000
    50  H          0.41930000       0.30330000       0.56340000
    51  H          0.29370000       0.60470000       0.52970000
    52  H          0.70630000       0.39530000       0.47030000
    53  H          0.33860000       0.01860000       0.68560000
    54  H          0.66140000       0.98140000       0.31440000
    55  H          0.28360000       0.01960000       0.18860000
    56  H          0.71640000       0.98040000       0.81140000
    57  H          0.39250000       0.64850000       0.31150000
    58  H          0.60750000       0.35150000       0.68850000
    59  H          0.51060000       0.66560000       0.54060000
    60  H          0.48940000       0.33440000       0.45940000
    61  H          0.19210000       0.59290000       0.20910000
    62  H          0.80790000       0.40710000       0.79090000
    63  H          0.29370000       0.51480000       0.11960000
    64  H          0.70630000       0.48520000       0.88040000
    65  H          0.26260000       0.61460000       0.08370000
    66  H          0.73740000       0.38540000       0.91630000
    67  H          0.55611000       0.69411000       0.19210000
    68  H          0.44389000       0.30589000       0.80790000
    69  H          0.48310000       0.66310000       0.07910000
    70  H          0.51690000       0.33690000       0.92090000
    71  I          0.95818600       0.25210500       0.04235400
    72  I          0.04181400       0.74789500       0.95764600
    73  O          0.43814000       0.40005000       0.23565000
    74  O          0.56186000       0.59995000       0.76435000
    75  O          0.57314000       0.26244000       0.15175000
    76  O          0.42686000       0.73756000       0.84825000
    77  C          0.16108000       0.07416000       0.93955000
    78  C          0.83892000       0.92584000       0.06045000
    79  C          0.38186000       0.10905000      -0.00135000
    80  C          0.61814000       0.89095000       0.00135000
    81  C          0.23715000       0.25465000       0.09735000
    82  C          0.76285000       0.74535000       0.90265000
    83  C          0.35965000       0.21834000       0.08494000
    84  C          0.64035000       0.78166000       0.91506000
    85  C          0.46426000       0.30066000       0.16616000
    86  C          0.53574000       0.69934000       0.83384000
    87  C          0.13925000       0.18455000       0.02404000
    88  C          0.86075000       0.81545000       0.97596000
    89  C          0.28258000       0.03646000       0.92794000
    90  C          0.71742000       0.96354000       0.07206000
    91  H          0.21940000       0.32240000       0.15340000
    92  H          0.78060000       0.67760000       0.84660000
    93  H          0.29950000       0.96750000       0.87850000
    94  H          0.70050000       0.03250000       0.12150000
    95  H          0.46750000       0.08650000      -0.01140000
    96  H          0.53250000       0.91350000       0.01140000
    97  H          0.09060000       0.03460000       0.88740000
    98  H          0.90940000       0.96540000       0.11260000
    99  I          0.00405400       0.74645400       0.65129400
   100  I         -0.00405400       0.25354600       0.34870600
   101  O          0.73385000       0.42735000       0.27074000
   102  O          0.26615000       0.57265000       0.72926000
   103  O          0.74605000       0.48996000       0.12314000
   104  O          0.25395000       0.51004000       0.87686000
   105  C          0.88415000       0.62756000       0.41165000
   106  C          0.11585000       0.37244000       0.58835000
   107  C          0.85665000       0.61176000       0.29725000
   108  C          0.14335000       0.38824000       0.70275000
   109  C          0.77256000       0.50247000       0.22156000
   110  C          0.22744000       0.49753000       0.77844000
   111  C          0.90687000       0.70158000       0.25566000
   112  C          0.09313000       0.29842000       0.74434000
   113  C          0.96135000       0.72875000       0.48015000
   114  C          0.03865000       0.27125000       0.51985000
   115  C          0.00996000       0.81567000       0.43726000
   116  C         -0.00996000       0.18433000       0.56274000
   117  C          0.98297000       0.80188000       0.32667000
   118  C          0.01703000       0.19812000       0.67333000
   119  H          0.05560000       0.88460000       0.49060000
   120  H          0.94440000       0.11540000       0.50940000
   121  H          0.01290000       0.87590000       0.28680000
   122  H         -0.01290000       0.12410000       0.71320000
   123  H          0.85640000       0.56440000       0.43840000
   124  H          0.14360000       0.43560000       0.56160000
   125  H          0.88050000       0.69150000       0.18550000
   126  H          0.11950000       0.30850000       0.81450000
   127  H          0.68670000       0.36670000       0.24070000
   128  H          0.31330000       0.63330000       0.75930000
