data_EPANIU
_symmetry_space_group_name_H-M    'P1'
_symmetry_Int_Tables_number       1
loop_
_symmetry_equiv_pos_site_id
_symmetry_equiv_pos_as_xyz
1 x,y,z
_cell_length_a                   11.43496
_cell_length_b                   15.54506
_cell_length_c                   12.81796
_cell_angle_alpha                90.0
_cell_angle_beta                 113.7556
_cell_angle_gamma                90.0
loop_
_atom_site_label
_atom_site_type_symbol
_atom_site_fract_x
_atom_site_fract_y
_atom_site_fract_z
     1  C          0.55232000       0.11883150       0.80545190
     2  C          0.94768000       0.61883150       0.69454810
     3  C          0.44768000       0.88116850       0.19454810
     4  C          0.05232000       0.38116850       0.30545190
     5  C          0.48242000       0.16732000       0.86392000
     6  C          0.01758000       0.66732000       0.63608000
     7  C          0.51758000       0.83268000       0.13608000
     8  C         -0.01758000       0.33268000       0.36392000
     9  C          0.58593000       0.20502000       0.97073000
    10  C          0.91407000       0.70502000       0.52927000
    11  C          0.41407000       0.79498000       0.02927000
    12  C          0.08593000       0.29498000       0.47073000
    13  C          0.70412000       0.15234170       0.98782000
    14  C          0.79588000       0.65234170       0.51218000
    15  C          0.29588000       0.84765830       0.01218000
    16  C          0.20412000       0.34765830       0.48782000
    17  C          0.67632000       0.11160130       0.87398170
    18  C          0.82368000       0.61160130       0.62601830
    19  C          0.32368000       0.88839870       0.12601830
    20  C          0.17632000       0.38839870       0.37398170
    21  C          0.58633000       0.20214190       0.60112000
    22  C          0.91367000       0.70214190       0.89888000
    23  C          0.41367000       0.79785810       0.39888000
    24  C          0.08633000       0.29785810       0.10112000
    25  H          0.62010000       0.22770000       0.67560000
    26  H          0.87990000       0.72770000       0.82440000
    27  H          0.37990000       0.77230000       0.32440000
    28  H          0.12010000       0.27230000       0.17560000
    29  H          0.54020000       0.24470000       0.54560000
    30  H          0.95980000       0.74470000       0.95440000
    31  H          0.45980000       0.75530000       0.45440000
    32  H          0.04020000       0.25530000       0.04560000
    33  H          0.65520000       0.18020000       0.58430000
    34  H          0.84480000       0.68020000       0.91570000
    35  H          0.34480000       0.81980000       0.41570000
    36  H          0.15520000       0.31980000       0.08430000
    37  C          0.49832000       0.13034160       0.59802000
    38  C          0.00168000       0.63034160       0.90198000
    39  C          0.50168000       0.86965840       0.40198000
    40  C         -0.00168000       0.36965840       0.09802000
    41  C          0.48342000       0.09063150       0.68638190
    42  C          0.01658000       0.59063150       0.81361810
    43  C          0.51658000       0.90936850       0.31361810
    44  C         -0.01658000       0.40936850       0.18638190
    45  C          0.38522000       0.02571150       0.65072000
    46  C          0.11478000       0.52571150       0.84928000
    47  C          0.61478000       0.97428850       0.34928000
    48  C          0.88522000       0.47428850       0.15072000
    49  C          0.34513000       0.96983820       0.71602000
    50  C          0.15487000       0.46983820       0.78398000
    51  C          0.65487000       0.03016180       0.28398000
    52  C          0.84513000       0.53016180       0.21602000
    53  H          0.38340000       0.97210000       0.79510000
    54  H          0.11660000       0.47210000       0.70490000
    55  H          0.61660000       0.02790000       0.20490000
    56  H          0.88340000       0.52790000       0.29510000
    57  C          0.24943000       0.91198000       0.66243000
    58  C          0.25057000       0.41198000       0.83757000
    59  C          0.75057000       0.08802000       0.33757000
    60  C          0.74943000       0.58802000       0.16243000
    61  H          0.22270000       0.87510000       0.70560000
    62  H          0.27730000       0.37510000       0.79440000
    63  H          0.77730000       0.12490000       0.29440000
    64  H          0.72270000       0.62490000       0.20560000
    65  C          0.19153000       0.90778000       0.54403000
    66  C          0.30847000       0.40778000       0.95597000
    67  C          0.80847000       0.09222000       0.45597000
    68  C          0.69153000       0.59222000       0.04403000
    69  H          0.12600000       0.86840000       0.50920000
    70  H          0.37400000       0.36840000      -0.00920000
    71  H          0.87400000       0.13160000       0.49080000
    72  H          0.62600000       0.63160000       0.00920000
    73  C          0.22923000       0.96048000       0.47803000
    74  C          0.27077000       0.46048000       0.02197000
    75  C          0.77077000       0.03952000       0.52197000
    76  C          0.72923000       0.53952000       0.97803000
    77  H          0.19030000       0.95720000       0.39890000
    78  H          0.30970000       0.45720000       0.10110000
    79  H          0.80970000       0.04280000       0.60110000
    80  H          0.69030000       0.54280000       0.89890000
    81  C          0.32732000       0.01938170       0.53182000
    82  C          0.17268000       0.51938170       0.96818000
    83  C          0.67268000       0.98061830       0.46818000
    84  C          0.82732000       0.48061830       0.03182000
    85  C          0.70543000       0.91378820       0.87963000
    86  C          0.79457000       0.41378820       0.62037000
    87  C          0.29457000       0.08621180       0.12037000
    88  C          0.20543000       0.58621180       0.37963000
    89  H          0.75580000       0.87700000       0.94150000
    90  H          0.74420000       0.37700000       0.55850000
    91  H          0.24420000       0.12300000       0.05850000
    92  H          0.25580000       0.62300000       0.44150000
    93  H          0.66380000       0.87990000       0.81200000
    94  H          0.83620000       0.37990000       0.68800000
    95  H          0.33620000       0.12010000       0.18800000
    96  H          0.16380000       0.62010000       0.31200000
    97  H          0.64230000       0.94270000       0.89830000
    98  H          0.85770000       0.44270000       0.60170000
    99  H          0.35770000       0.05730000       0.10170000
   100  H          0.14230000       0.55730000       0.39830000
   101  C          0.78992000       0.97861840       0.85912000
   102  C          0.71008000       0.47861840       0.64088000
   103  C          0.21008000       0.02138160       0.14088000
   104  C          0.28992000       0.52138160       0.35912000
   105  C          0.77832000       0.06590140       0.85435170
   106  C          0.72168000       0.56590140       0.64564830
   107  C          0.22168000       0.93409860       0.14564830
   108  C          0.27832000       0.43409860       0.35435170
   109  C          0.87992000       0.10813150       0.83525170
   110  C          0.62008000       0.60813150       0.66474830
   111  C          0.12008000       0.89186850       0.16474830
   112  C          0.37992000       0.39186850       0.33525170
   113  C          0.89972000       0.19568170       0.82312000
   114  C          0.60028000       0.69568170       0.67688000
   115  C          0.10028000       0.80431830       0.17688000
   116  C          0.39972000       0.30431830       0.32312000
   117  H          0.84420000       0.23640000       0.83090000
   118  H          0.65580000       0.73640000       0.66910000
   119  H          0.15580000       0.76360000       0.16910000
   120  H          0.34420000       0.26360000       0.33090000
   121  C          0.00183000       0.22152000       0.79963000
   122  C          0.49817000       0.72152000       0.70037000
   123  C         -0.00183000       0.77848000       0.20037000
   124  C          0.50183000       0.27848000       0.29963000
   125  H          0.01490000       0.27980000       0.79180000
   126  H          0.48510000       0.77980000       0.70820000
   127  H         -0.01490000       0.72020000       0.20820000
   128  H          0.51490000       0.22020000       0.29180000
   129  C          0.08533000       0.16163000       0.78733000
   130  C          0.41467000       0.66163000       0.71267000
   131  C          0.91467000       0.83837000       0.21267000
   132  C          0.58533000       0.33837000       0.28733000
   133  H          0.15310000       0.18020000       0.77060000
   134  H          0.34690000       0.68020000       0.72940000
   135  H          0.84690000       0.81980000       0.22940000
   136  H          0.65310000       0.31980000       0.27060000
   137  C          0.06943000       0.07552000       0.79953000
   138  C          0.43057000       0.57552000       0.70047000
   139  C          0.93057000       0.92448000       0.20047000
   140  C          0.56943000       0.42448000       0.29953000
   141  H          0.12570000       0.03560000       0.79140000
   142  H          0.37430000       0.53560000       0.70860000
   143  H          0.87430000       0.96440000       0.20860000
   144  H          0.62570000       0.46440000       0.29140000
   145  C          0.96712000       0.04872180       0.82432000
   146  C          0.53288000       0.54872180       0.67568000
   147  C          0.03288000       0.95127820       0.17568000
   148  C          0.46712000       0.45127820       0.32432000
   149  F          0.40182000       0.22473170       0.79872000
   150  F          0.09818000       0.72473170       0.70128000
   151  F          0.59818000       0.77526830       0.20128000
   152  F          0.90182000       0.27526830       0.29872000
   153  F          0.40962000       0.11417170       0.89862000
   154  F          0.09038000       0.61417170       0.60138000
   155  F          0.59038000       0.88582830       0.10138000
   156  F          0.90962000       0.38582830       0.39862000
   157  F          0.60722000       0.28721140       0.94473000
   158  F          0.89278000       0.78721140       0.55527000
   159  F          0.39278000       0.71278860       0.05527000
   160  F          0.10722000       0.21278860       0.44473000
   161  F          0.55712000       0.21102000       0.05849190
   162  F          0.94288000       0.71102000       0.44150810
   163  F          0.44288000       0.78898000       0.94150810
   164  F          0.05712000       0.28898000       0.55849190
   165  F          0.80992160       0.20020130       0.02784150
   166  F          0.69007840       0.70020130       0.47215850
   167  F          0.19007840       0.79979870       0.97215850
   168  F          0.30992160       0.29979870       0.52784150
   169  F          0.72062000       0.09121140       0.06779140
   170  F          0.77938000       0.59121140       0.43220860
   171  F          0.27938000       0.90878860       0.93220860
   172  F          0.22062000       0.40878860       0.56779140
   173  S          0.39285700       0.09089500       0.46732500
   174  S          0.10714300       0.59089500       0.03267500
   175  S          0.60714300       0.90910500       0.53267500
   176  S          0.89285700       0.40910500       0.96732500
   177  S          0.92411700       0.94448500       0.84013700
   178  S          0.57588300       0.44448500       0.65986300
   179  S          0.07588300       0.05551500       0.15986300
   180  S          0.42411700       0.55551500       0.34013700
