data_EPANIU03
_symmetry_space_group_name_H-M    'P1'
_symmetry_Int_Tables_number       1
loop_
_symmetry_equiv_pos_site_id
_symmetry_equiv_pos_as_xyz
1 x,y,z
_cell_length_a                   11.0532
_cell_length_b                   14.3383
_cell_length_c                   12.1362
_cell_angle_alpha                90.0
_cell_angle_beta                 113.763
_cell_angle_gamma                90.0
loop_
_atom_site_label
_atom_site_type_symbol
_atom_site_fract_x
_atom_site_fract_y
_atom_site_fract_z
     1  C          0.55961400       0.11836000       0.80451000
     2  C          0.94038600       0.61836000       0.69549000
     3  C          0.44038600       0.88164000       0.19549000
     4  C          0.05961400       0.38164000       0.30451000
     5  C          0.48391200       0.17066000       0.86251000
     6  C          0.01608800       0.67066000       0.63749000
     7  C          0.51608800       0.82934000       0.13749000
     8  C         -0.01608800       0.32934000       0.36251000
     9  C          0.59001100       0.21906000       0.97271100
    10  C          0.90998900       0.71906000       0.52728900
    11  C          0.40998900       0.78094000       0.02728900
    12  C          0.09001100       0.28094000       0.47271100
    13  C          0.71261100       0.16135000      -0.00662000
    14  C          0.78738900       0.66135000       0.50662000
    15  C          0.28738900       0.83865000       0.00662000
    16  C          0.21261100       0.33865000       0.49338000
    17  C          0.68651200       0.11295000       0.87669000
    18  C          0.81348800       0.61295000       0.62331000
    19  C          0.31348800       0.88705000       0.12331000
    20  C          0.18651200       0.38705000       0.37669000
    21  C          0.60621500       0.19816000       0.59091300
    22  C          0.89378500       0.69816000       0.90908700
    23  C          0.39378500       0.80184000       0.40908700
    24  C          0.10621500       0.30184000       0.09091300
    25  H          0.65910000       0.21400000       0.67330000
    26  H          0.84090000       0.71400000       0.82670000
    27  H          0.34090000       0.78600000       0.32670000
    28  H          0.15910000       0.28600000       0.17330000
    29  H          0.56180000       0.25290000       0.54820000
    30  H          0.93820000       0.75290000       0.95180000
    31  H          0.43820000       0.74710000       0.45180000
    32  H          0.06180000       0.24710000       0.04820000
    33  H          0.66200000       0.17370000       0.55430000
    34  H          0.83800000       0.67370000       0.94570000
    35  H          0.33800000       0.82630000       0.44570000
    36  H          0.16200000       0.32630000       0.05430000
    37  C          0.50591300       0.12616000       0.58629000
    38  C         -0.00591300       0.62616000       0.91371000
    39  C          0.49408700       0.87384000       0.41371000
    40  C          0.00591300       0.37384000       0.08629000
    41  C          0.48521200       0.08725000       0.67969000
    42  C          0.01478800       0.58725000       0.82031000
    43  C          0.51478800       0.91275000       0.32031000
    44  C         -0.01478800       0.41275000       0.17969000
    45  C          0.37571200       0.02295000       0.64329000
    46  C          0.12428800       0.52295000       0.85671000
    47  C          0.62428800       0.97705000       0.35671000
    48  C          0.87571200       0.47705000       0.14329000
    49  C          0.32871300       0.96624000       0.71161100
    50  C          0.17128700       0.46624000       0.78838900
    51  C          0.67128700       0.03376000       0.28838900
    52  C          0.82871300       0.53376000       0.21161100
    53  H          0.37150000       0.96520000       0.79510000
    54  H          0.12850000       0.46520000       0.70490000
    55  H          0.62850000       0.03480000       0.20490000
    56  H          0.87150000       0.53480000       0.29510000
    57  C          0.21841600       0.91244000       0.65311300
    58  C          0.28158400       0.41244000       0.84688700
    59  C          0.78158400       0.08756000       0.34688700
    60  C          0.71841600       0.58756000       0.15311300
    61  H          0.18830000       0.87330000       0.69780000
    62  H          0.31170000       0.37330000       0.80220000
    63  H          0.81170000       0.12670000       0.30220000
    64  H          0.68830000       0.62670000       0.19780000
    65  C          0.15071600       0.91543000       0.52831100
    66  C          0.34928400       0.41543000       0.97168900
    67  C          0.84928400       0.08457000       0.47168900
    68  C          0.65071600       0.58457000       0.02831100
    69  H          0.07350000       0.88110000       0.49150000
    70  H          0.42650000       0.38110000       0.00850000
    71  H          0.92650000       0.11890000       0.50850000
    72  H          0.57350000       0.61890000      -0.00850000
    73  C          0.19591300       0.96774000       0.45971200
    74  C          0.30408700       0.46774000       0.04028800
    75  C          0.80408700       0.03226000       0.54028800
    76  C          0.69591300       0.53226000       0.95971200
    77  H          0.15080000       0.96900000       0.37640000
    78  H          0.34920000       0.46900000       0.12360000
    79  H          0.84920000       0.03100000       0.62360000
    80  H          0.65080000       0.53100000       0.87640000
    81  C          0.31111100       0.01985000       0.51628000
    82  C          0.18888900       0.51985000       0.98372000
    83  C          0.68888900       0.98015000       0.48372000
    84  C          0.81111100       0.48015000       0.01628000
    85  C          0.71001400       0.90364000       0.88521100
    86  C          0.78998600       0.40364000       0.61478900
    87  C          0.28998600       0.09636000       0.11478900
    88  C          0.21001400       0.59636000       0.38521100
    89  H          0.74800000       0.88370000       0.96770000
    90  H          0.75200000       0.38370000       0.53230000
    91  H          0.25200000       0.11630000       0.03230000
    92  H          0.24800000       0.61630000       0.46770000
    93  H          0.69420000       0.85040000       0.83340000
    94  H          0.80580000       0.35040000       0.66660000
    95  H          0.30580000       0.14960000       0.16660000
    96  H          0.19420000       0.64960000       0.33340000
    97  H          0.62800000       0.93520000       0.86920000
    98  H          0.87200000       0.43520000       0.63080000
    99  H          0.37200000       0.06480000       0.13080000
   100  H          0.12800000       0.56480000       0.36920000
   101  C          0.80231100       0.96815000       0.86289000
   102  C          0.69768900       0.46815000       0.63711000
   103  C          0.19768900       0.03185000       0.13711000
   104  C          0.30231100       0.53185000       0.36289000
   105  C          0.79121200       0.06295000       0.85709000
   106  C          0.70878800       0.56295000       0.64291000
   107  C          0.20878800       0.93705000       0.14291000
   108  C          0.29121200       0.43705000       0.35709000
   109  C          0.89821200       0.10835000       0.83801000
   110  C          0.60178800       0.60835000       0.66199000
   111  C          0.10178800       0.89165000       0.16199000
   112  C          0.39821200       0.39165000       0.33801000
   113  C          0.91641600       0.20376000       0.82221100
   114  C          0.58358400       0.70376000       0.67778900
   115  C          0.08358400       0.79624000       0.17778900
   116  C          0.41641600       0.29624000       0.32221100
   117  H          0.85850000       0.24800000       0.82930000
   118  H          0.64150000       0.74800000       0.67070000
   119  H          0.14150000       0.75200000       0.17070000
   120  H          0.35850000       0.25200000       0.32930000
   121  C          0.02161500       0.23018000       0.79611100
   122  C          0.47838500       0.73018000       0.70388900
   123  C          0.97838500       0.76982000       0.20388900
   124  C          0.52161500       0.26982000       0.29611100
   125  H          0.03340000       0.29310000       0.78500000
   126  H          0.46660000       0.79310000       0.71500000
   127  H          0.96660000       0.70690000       0.21500000
   128  H          0.53340000       0.20690000       0.28500000
   129  C          0.11051600       0.16676000       0.78571200
   130  C          0.38948400       0.66676000       0.71428800
   131  C          0.88948400       0.83324000       0.21428800
   132  C          0.61051600       0.33324000       0.28571200
   133  H          0.17930000       0.18660000       0.76590000
   134  H          0.32070000       0.68660000       0.73410000
   135  H          0.82070000       0.81340000       0.23410000
   136  H          0.67930000       0.31340000       0.26590000
   137  C          0.09571400       0.07436000       0.80481100
   138  C          0.40428600       0.57436000       0.69518900
   139  C          0.90428600       0.92564000       0.19518900
   140  C          0.59571400       0.42564000       0.30481100
   141  H          0.15720000       0.03140000       0.80140000
   142  H          0.34280000       0.53140000       0.69860000
   143  H          0.84280000       0.96860000       0.19860000
   144  H          0.65720000       0.46860000       0.30140000
   145  C         -0.01008800       0.04375000       0.82931000
   146  C          0.51008800       0.54375000       0.67069000
   147  C          0.01008800       0.95625000       0.17069000
   148  C          0.48991200       0.45625000       0.32931000
   149  F          0.39691100       0.23003000       0.78979000
   150  F          0.10308900       0.73003000       0.71021000
   151  F          0.60308900       0.76997000       0.21021000
   152  F          0.89691100       0.26997000       0.28979000
   153  F          0.41711200       0.11225000       0.90739000
   154  F          0.08288800       0.61225000       0.59261000
   155  F          0.58288800       0.88775000       0.09261000
   156  F          0.91711200       0.38775000       0.40739000
   157  F          0.60561100       0.30673000       0.93968000
   158  F          0.89438900       0.80673000       0.56032000
   159  F          0.39438900       0.69327000       0.06032000
   160  F          0.10561100       0.19327000       0.43968000
   161  F          0.56171100       0.22364000       0.06761000
   162  F          0.93828900       0.72364000       0.43239000
   163  F          0.43828900       0.77636000       0.93239000
   164  F          0.06171100       0.27636000       0.56761000
   165  F          0.82331000       0.21553000       0.03468000
   166  F          0.67669000       0.71553000       0.46532000
   167  F          0.17669000       0.78447000       0.96532000
   168  F          0.32331000       0.28447000       0.53468000
   169  F          0.73011100       0.09773000       0.08188000
   170  F          0.76988900       0.59773000       0.41812000
   171  F          0.26988900       0.90227000       0.91812000
   172  F          0.23011100       0.40227000       0.58188000
   173  S          0.38945000       0.08937150       0.44844000
   174  S          0.11055000       0.58937150       0.05156000
   175  S          0.61055000       0.91062850       0.55156000
   176  S          0.88945000       0.41062850       0.94844000
   177  S          0.94256000       0.93107840       0.84654000
   178  S          0.55744000       0.43107840       0.65346000
   179  S          0.05744000       0.06892160       0.15346000
   180  S          0.44256000       0.56892160       0.34654000
