data_EPANIU07
_symmetry_space_group_name_H-M    'P1'
_symmetry_Int_Tables_number       1
loop_
_symmetry_equiv_pos_site_id
_symmetry_equiv_pos_as_xyz
1 x,y,z
_cell_length_a                   10.1359
_cell_length_b                   15.038416
_cell_length_c                   10.9007
_cell_angle_alpha                90.0
_cell_angle_beta                 107.529
_cell_angle_gamma                90.0
loop_
_atom_site_label
_atom_site_type_symbol
_atom_site_fract_x
_atom_site_fract_y
_atom_site_fract_z
     1  C          0.54391000       0.16633000       0.80418000
     2  C          0.95609000       0.66633000       0.69582000
     3  C          0.45609000       0.83367000       0.19582000
     4  C          0.04391000       0.33367000       0.30418000
     5  C          0.47889000       0.24663000       0.83927000
     6  C          0.02111000       0.74663000       0.66073000
     7  C          0.52111000       0.75337000       0.16073000
     8  C          0.97889000       0.25337000       0.33927000
     9  C          0.55101000       0.26374000       0.98518000
    10  C          0.94899000       0.76374000       0.51482000
    11  C          0.44899000       0.73626000       0.01482000
    12  C          0.05101000       0.23626000       0.48518000
    13  C          0.66778000       0.19533000       0.02017000
    14  C          0.83222000       0.69533000       0.47983000
    15  C          0.33222000       0.80467000       0.97983000
    16  C          0.16778000       0.30467000       0.52017000
    17  C          0.64989000       0.13793000       0.90218000
    18  C          0.85011000       0.63793000       0.59782000
    19  C          0.35011000       0.86207000       0.09782000
    20  C          0.14989000       0.36207000       0.40218000
    21  C          0.67791000       0.21934000       0.59261000
    22  C          0.82209000       0.71934000       0.90739000
    23  C          0.32209000       0.78066000       0.40739000
    24  C          0.17791000       0.28066000       0.09261000
    25  H          0.69640000       0.25310000       0.67070000
    26  H          0.80360000       0.75310000       0.82930000
    27  H          0.30360000       0.74690000       0.32930000
    28  H          0.19640000       0.24690000       0.17070000
    29  H          0.66040000       0.25900000       0.52060000
    30  H          0.83960000       0.75900000       0.97940000
    31  H          0.33960000       0.74100000       0.47940000
    32  H          0.16040000       0.24100000       0.02060000
    33  H          0.75650000       0.18270000       0.59580000
    34  H          0.74350000       0.68270000       0.90420000
    35  H          0.24350000       0.81730000       0.40420000
    36  H          0.25650000       0.31730000       0.09580000
    37  C          0.55409000       0.16163000       0.57848000
    38  C          0.94591000       0.66163000       0.92152000
    39  C          0.44591000       0.83837000       0.42152000
    40  C          0.05409000       0.33837000       0.07848000
    41  C          0.49969000       0.13153000       0.67138000
    42  C          0.00031000       0.63153000       0.82862000
    43  C          0.50031000       0.86847000       0.32862000
    44  C         -0.00031000       0.36847000       0.17138000
    45  C          0.39059000       0.06703000       0.62368000
    46  C          0.10941000       0.56703000       0.87632000
    47  C          0.60941000       0.93297000       0.37632000
    48  C          0.89059000       0.43297000       0.12368000
    49  C          0.32271000       0.01313000       0.69009000
    50  C          0.17729000       0.51313000       0.80991000
    51  C          0.67729000       0.98687000       0.30991000
    52  C          0.82271000       0.48687000       0.19009000
    53  H          0.34740000       0.01520000       0.77930000
    54  H          0.15260000       0.51520000       0.72070000
    55  H          0.65260000       0.98480000       0.22070000
    56  H          0.84740000       0.48480000       0.27930000
    57  C          0.21791100       0.95596000       0.62169000
    58  C          0.28208900       0.45596000       0.87831000
    59  C          0.78208900       0.04404000       0.37831000
    60  C          0.71791100       0.54404000       0.12169000
    61  H          0.17280000       0.91960000       0.66510000
    62  H          0.32720000       0.41960000       0.83490000
    63  H          0.82720000       0.08040000       0.33490000
    64  H          0.67280000       0.58040000       0.16510000
    65  C          0.18151000       0.95366000       0.48888000
    66  C          0.31849000       0.45366000       0.01112000
    67  C          0.81849000       0.04634000       0.51112000
    68  C          0.68151000       0.54634000      -0.01112000
    69  H          0.10610000       0.91970000       0.44320000
    70  H          0.39390000       0.41970000       0.05680000
    71  H          0.89390000       0.08030000       0.55680000
    72  H          0.60610000       0.58030000       0.94320000
    73  C          0.25401000       0.00043000       0.42389000
    74  C          0.24599000       0.50043000       0.07611000
    75  C          0.74599000      -0.00043000       0.57611000
    76  C          0.75401000       0.49957000       0.92389000
    77  H          0.23290000      -0.00530000       0.33510000
    78  H          0.26710000       0.49470000       0.16490000
    79  H          0.76710000       0.00530000       0.66490000
    80  H          0.73290000       0.50530000       0.83510000
    81  C          0.35998000       0.05683000       0.49087000
    82  C          0.14002000       0.55683000       0.00913000
    83  C          0.64002000       0.94317000       0.50913000
    84  C          0.85998000       0.44317000      -0.00913000
    85  C          0.61611000       0.92976000       0.92499000
    86  C          0.88389000       0.42976000       0.57501000
    87  C          0.38389000       0.07024000       0.07501000
    88  C          0.11611000       0.57024000       0.42499000
    89  H          0.54860000       0.97070000       0.93740000
    90  H          0.95140000       0.47070000       0.56260000
    91  H          0.45140000       0.02930000       0.06260000
    92  H          0.04860000       0.52930000       0.43740000
    93  H          0.65120000       0.89400000       0.00070000
    94  H          0.84880000       0.39400000       0.49930000
    95  H          0.34880000       0.10600000      -0.00070000
    96  H          0.15120000       0.60600000       0.50070000
    97  H          0.57380000       0.89210000       0.85260000
    98  H          0.92620000       0.39210000       0.64740000
    99  H          0.42620000       0.10790000       0.14740000
   100  H          0.07380000       0.60790000       0.35260000
   101  C          0.73168000       0.97997000       0.90038000
   102  C          0.76832000       0.47997000       0.59962000
   103  C          0.26832000       0.02003000       0.09962000
   104  C          0.23168000       0.52003000       0.40038000
   105  C          0.74869000       0.07013000       0.89498000
   106  C          0.75131000       0.57013000       0.60502000
   107  C          0.25131000       0.92987000       0.10502000
   108  C          0.24869000       0.42987000       0.39498000
   109  C          0.87399000       0.09303000       0.86688000
   110  C          0.62601000       0.59303000       0.63312000
   111  C          0.12601000       0.90697000       0.13312000
   112  C          0.37399000       0.40697000       0.36688000
   113  C          0.92101100       0.17793000       0.84718000
   114  C          0.57898900       0.67793000       0.65282000
   115  C          0.07898900       0.82207000       0.15282000
   116  C          0.42101100       0.32207000       0.34718000
   117  H          0.87250000       0.22830000       0.85780000
   118  H          0.62750000       0.72830000       0.64220000
   119  H          0.12750000       0.77170000       0.14220000
   120  H          0.37250000       0.27170000       0.35780000
   121  C          0.03951000       0.18584000       0.81188000
   122  C          0.46049000       0.68584000       0.68812000
   123  C          0.96049000       0.81416000       0.18812000
   124  C          0.53951000       0.31416000       0.31188000
   125  H          0.07000000       0.24210000       0.79770000
   126  H          0.43000000       0.74210000       0.70230000
   127  H          0.93000000       0.75790000       0.20230000
   128  H          0.57000000       0.25790000       0.29770000
   129  C          0.11531000       0.11163000       0.79669000
   130  C          0.38469000       0.61163000       0.70331000
   131  C          0.88469000       0.88837000       0.20331000
   132  C          0.61531000       0.38837000       0.29669000
   133  H          0.19490000       0.11870000       0.77190000
   134  H          0.30510000       0.61870000       0.72810000
   135  H          0.80510000       0.88130000       0.22810000
   136  H          0.69490000       0.38130000       0.27190000
   137  C          0.07241000       0.02784000       0.81808000
   138  C          0.42759000       0.52784000       0.68192000
   139  C          0.92759000       0.97216000       0.18192000
   140  C          0.57241000       0.47216000       0.31808000
   141  H          0.12390000       0.97820000       0.80970000
   142  H          0.37610000       0.47820000       0.69030000
   143  H          0.87610000       0.02180000       0.19030000
   144  H          0.62390000       0.52180000       0.30970000
   145  C          0.95179000       0.01793000       0.85228000
   146  C          0.54821000       0.51793000       0.64772000
   147  C          0.04821000       0.98207000       0.14772000
   148  C          0.45179000       0.48207000       0.35228000
   149  F          0.49086000       0.31812000       0.76886000
   150  F          0.00914000       0.81812000       0.73114000
   151  F          0.50914000       0.68188000       0.23114000
   152  F         -0.00914000       0.18188000       0.26886000
   153  F          0.33966000       0.23819190       0.82096000
   154  F          0.16034000       0.73819190       0.67904000
   155  F          0.66034000       0.76180810       0.17904000
   156  F          0.83966000       0.26180810       0.32096000
   157  F          0.60226000       0.34786180       0.00276000
   158  F          0.89774000       0.84786180       0.49724000
   159  F          0.39774000       0.65213820      -0.00276000
   160  F          0.10226000       0.15213820       0.50276000
   161  F          0.46538000       0.25422000       0.05327000
   162  F          0.03462000       0.75422000       0.44673000
   163  F          0.53462000       0.74578000       0.94673000
   164  F          0.96538000       0.24578000       0.55327000
   165  F          0.79376000       0.23536190       0.05296000
   166  F          0.70624000       0.73536190       0.44704000
   167  F          0.20624000       0.76463810       0.94704000
   168  F          0.29376000       0.26463810       0.55296000
   169  F          0.66646000       0.14680190       0.12366000
   170  F          0.83354000       0.64680190       0.37634000
   171  F          0.33354000       0.85319810       0.87634000
   172  F          0.16646000       0.35319810       0.62366000
   173  S          0.46753000       0.11770900       0.42913000
   174  S          0.03247000       0.61770900       0.07087000
   175  S          0.53247000       0.88229100       0.57087000
   176  S          0.96753000       0.38229100       0.92913000
   177  S          0.86773000       0.92207100       0.87373000
   178  S          0.63227000       0.42207100       0.62627000
   179  S          0.13227000       0.07792900       0.12627000
   180  S          0.36773000       0.57792900       0.37373000
