data_ETDIAM15
_symmetry_space_group_name_H-M    'P1'
_symmetry_Int_Tables_number       1
loop_
_symmetry_equiv_pos_site_id
_symmetry_equiv_pos_as_xyz
1 x,y,z
_cell_length_a                   4.9496
_cell_length_b                   7.7048
_cell_length_c                   4.963
_cell_angle_alpha                90.0
_cell_angle_beta                 116.711
_cell_angle_gamma                90.0
loop_
_atom_site_label
_atom_site_type_symbol
_atom_site_fract_x
_atom_site_fract_y
_atom_site_fract_z
     1  N          0.77750000       0.35401100       0.27630000
     2  N          0.22250000       0.85401100       0.22370000
     3  N          0.22250000       0.64598900       0.72370000
     4  N          0.77750000       0.14598900       0.77630000
     5  H          0.85960000       0.30220000       0.16280000
     6  H          0.14040000       0.80220000       0.33720000
     7  H          0.14040000       0.69780000       0.83720000
     8  H          0.85960000       0.19780000       0.66280000
     9  H          0.93070000       0.39620000       0.44510000
    10  H          0.06930000       0.89620000       0.05490000
    11  H          0.06930000       0.60380000       0.55490000
    12  H          0.93070000       0.10380000       0.94510000
    13  C          0.50170000       0.43521200       0.11230000
    14  C          0.49830000       0.93521200       0.38770000
    15  C          0.49830000       0.56478800       0.88770000
    16  C          0.50170000       0.06478800       0.61230000
    17  H          0.44230000       0.49270000       0.25120000
    18  H          0.55770000      -0.00730000       0.24880000
    19  H          0.55770000       0.50730000       0.74880000
    20  H          0.44230000       0.00730000       0.75120000
    21  H          0.35000000       0.34720000       0.00540000
    22  H          0.65000000       0.84720000       0.49460000
    23  H          0.65000000       0.65280000      -0.00540000
    24  H          0.35000000       0.15280000       0.50540000
