data_ETEDOX02
_symmetry_space_group_name_H-M    'P1'
_symmetry_Int_Tables_number       1
loop_
_symmetry_equiv_pos_site_id
_symmetry_equiv_pos_as_xyz
1 x,y,z
_cell_length_a                   10.73335
_cell_length_b                   11.80797
_cell_length_c                   16.217412
_cell_angle_alpha                95.2933
_cell_angle_beta                 100.4054
_cell_angle_gamma                113.0444
loop_
_atom_site_label
_atom_site_type_symbol
_atom_site_fract_x
_atom_site_fract_y
_atom_site_fract_z
     1  S          0.58794100       0.74122900       0.33336700
     2  S          0.41205900       0.25877100       0.66663300
     3  S          0.08044100       0.69273100       0.06405700
     4  S          0.91955900       0.30726900       0.93594300
     5  O          0.18443000       0.50512000       0.40425180
     6  O          0.81557000       0.49488000       0.59574820
     7  O          0.28823000       0.37212000       0.41772190
     8  O          0.71177000       0.62788000       0.58227810
     9  O          0.32783000       0.49103000       0.19094190
    10  O          0.67217000       0.50897000       0.80905810
    11  O          0.20073000       0.34302000       0.07501170
    12  O          0.79927000       0.65698000       0.92498830
    13  N          0.40893000       0.55803000       0.38942000
    14  N          0.59107000       0.44197000       0.61058000
    15  H          0.46440000       0.52640000       0.38730000
    16  H          0.53560000       0.47360000       0.61270000
    17  N          0.34043000       0.71433000       0.35742000
    18  N          0.65957000       0.28567000       0.64258000
    19  H          0.27040000       0.67740000       0.37930000
    20  H          0.72960000       0.32260000       0.62070000
    21  N          0.29313000       0.70103000       0.18352000
    22  N          0.70687000       0.29897000       0.81648000
    23  H          0.33040000       0.66340000       0.20430000
    24  H          0.66960000       0.33660000       0.79570000
    25  N          0.18064000       0.52253000       0.08272000
    26  N          0.81936000       0.47747000       0.91728000
    27  H          0.11340000       0.48140000       0.04230000
    28  H          0.88660000       0.51860000       0.95770000
    29  C          0.18245000       0.16234000       0.43733000
    30  C          0.81755000       0.83766000       0.56267000
    31  H          0.19640000       0.13520000       0.38200000
    32  H          0.80360000       0.86480000       0.61800000
    33  H          0.09960000       0.09720000       0.44820000
    34  H          0.90040000       0.90280000       0.55180000
    35  H          0.26420000       0.17670000       0.48230000
    36  H          0.73580000       0.82330000       0.51770000
    37  C          0.16304000       0.28034000       0.43623000
    38  C          0.83696000       0.71966000       0.56377000
    39  H          0.07950000       0.26670000       0.39170000
    40  H          0.92050000       0.73330000       0.60830000
    41  H          0.15090000       0.30980000       0.49210000
    42  H          0.84910000       0.69020000       0.50790000
    43  C          0.28254000       0.48044000       0.40423000
    44  C          0.71746000       0.51956000       0.59577000
    45  C          0.43784000       0.66964000       0.36182000
    46  C          0.56216000       0.33036000       0.63818000
    47  C          0.35394000       0.82533000       0.32272000
    48  C          0.64606000       0.17467000       0.67728000
    49  C          0.39204000       0.93684000       0.37643000
    50  C          0.60796000       0.06316000       0.62357000
    51  H          0.40990000       0.94070000       0.43640000
    52  H          0.59010000       0.05930000       0.56360000
    53  C          0.40414000       0.04304000       0.34303000
    54  C          0.59586000       0.95696000       0.65697000
    55  H          0.43060000       0.12000000       0.38000000
    56  H          0.56940000       0.88000000       0.62000000
    57  C          0.37744000       0.03724000       0.25543000
    58  C          0.62256000       0.96276000       0.74457000
    59  H          0.38510000       0.11030000       0.23250000
    60  H          0.61490000       0.88970000       0.76750000
    61  C          0.33944000       0.92514000       0.20113000
    62  C          0.66056000       0.07486000       0.79887000
    63  H          0.32310000       0.92170000       0.14120000
    64  H          0.67690000       0.07830000       0.85880000
    65  C          0.32544000       0.81743000       0.23492000
    66  C          0.67456000       0.18257000       0.76508000
    67  C          0.19184000       0.64014000       0.11442000
    68  C          0.80816000       0.35986000       0.88558000
    69  C          0.24384000       0.45414000       0.12303000
    70  C          0.75616000       0.54586000       0.87697000
    71  C          0.24415000       0.25404000       0.11473000
    72  C          0.75585000       0.74596000       0.88527000
    73  H          0.23030000       0.25440000       0.17350000
    74  H          0.76970000       0.74560000       0.82650000
    75  H          0.34370000       0.27570000       0.11700000
    76  H          0.65630000       0.72430000       0.88300000
    77  C          0.15525000       0.12894000       0.06063000
    78  C          0.84475000       0.87106000       0.93937000
    79  H          0.05720000       0.10770000       0.06020000
    80  H          0.94280000       0.89230000       0.93980000
    81  H          0.18220000       0.06570000       0.08360000
    82  H          0.81780000       0.93430000       0.91640000
    83  H          0.16760000       0.13080000       0.00220000
    84  H          0.83240000       0.86920000      -0.00220000
    85  S          0.59467110       0.39289100       0.36743800
    86  S          0.40532890       0.60710900       0.63256200
    87  S          0.97152110       0.29086130       0.20458800
    88  S          0.02847890       0.70913870       0.79541200
    89  O          0.00773000       0.64153000       0.30954190
    90  O         -0.00773000       0.35847000       0.69045810
    91  O          0.89023000       0.76102000       0.28092000
    92  O          0.10977000       0.23898000       0.71908000
    93  O          0.50503000       0.15694000       0.09162000
    94  O          0.49497000       0.84306000       0.90838000
    95  O          0.58173000       0.20604000       0.97351810
    96  O          0.41827000       0.79396000       0.02648190
    97  N          0.78174000       0.58263000       0.32122000
    98  N          0.21826000       0.41737000       0.67878000
    99  H          0.71150000       0.60340000       0.31530000
   100  H          0.28850000       0.39660000       0.68470000
   101  N          0.84653000       0.42353000       0.35072000
   102  N          0.15347000       0.57647000       0.64928000
   103  H          0.92950000       0.47140000       0.34230000
   104  H          0.07050000       0.52860000       0.65770000
   105  N          0.71444000       0.19903000       0.22652000
   106  N          0.28556000       0.80097000       0.77348000
   107  H          0.62950000       0.17740000       0.20630000
   108  H          0.37050000       0.82260000       0.79370000
   109  N          0.73674000       0.23354000       0.09102000
   110  N          0.26326000       0.76646000       0.90898000
   111  H          0.79750000       0.26550000       0.06330000
   112  H          0.20250000       0.73450000       0.93670000
   113  C          0.96885000       0.95174000       0.22863000
   114  C          0.03115000       0.04826000       0.77137000
   115  H          0.89580000       0.91430000       0.17570000
   116  H          0.10420000       0.08570000       0.82430000
   117  H          0.04960000       0.01930000       0.21770000
   118  H          0.95040000       0.98070000       0.78230000
   119  H          0.93320000      -0.01450000       0.27170000
   120  H          0.06680000       0.01450000       0.72830000
   121  C          0.01114000       0.85454000       0.26003000
   122  C         -0.01114000       0.14546000       0.73997000
   123  H          0.04130000       0.81550000       0.21540000
   124  H          0.95870000       0.18450000       0.78460000
   125  H          0.08950000       0.89240000       0.31110000
   126  H          0.91050000       0.10760000       0.68890000
   127  C          0.90494000       0.66074000       0.30423000
   128  C          0.09506000       0.33926000       0.69577000
   129  C          0.74914000       0.46714000       0.34553000
   130  C          0.25086000       0.53286000       0.65447000
   131  C          0.82314000       0.30423000       0.37523000
   132  C          0.17686000       0.69577000       0.62477000
   133  C          0.86224000       0.29854000       0.46003000
   134  C          0.13776000       0.70146000       0.53997000
   135  H          0.90520000       0.37310000       0.50160000
   136  H          0.09480000       0.62690000       0.49840000
   137  C          0.83854000       0.18284000       0.48463000
   138  C          0.16146000       0.81716000       0.51537000
   139  H          0.86540000       0.17850000       0.54290000
   140  H          0.13460000       0.82150000       0.45710000
   141  C          0.77634000       0.07564000       0.42423000
   142  C          0.22366000       0.92436000       0.57577000
   143  H          0.76030000      -0.00290000       0.44100000
   144  H          0.23970000       0.00290000       0.55900000
   145  C          0.73674000       0.08074000       0.33923000
   146  C          0.26326000       0.91926000       0.66077000
   147  H          0.69300000       0.00600000       0.29780000
   148  H          0.30700000      -0.00600000       0.70220000
   149  C          0.76114000       0.19544000       0.31453000
   150  C          0.23886000       0.80456000       0.68547000
   151  C          0.79894000       0.23754000       0.17503000
   152  C          0.20106000       0.76246000       0.82497000
   153  C          0.59775000       0.19485000       0.05493000
   154  C          0.40225000       0.80515000       0.94507000
   155  C          0.44135000       0.17716000       0.92517000
   156  C          0.55865000       0.82284000       0.07483000
   157  H          0.37220000       0.11680000       0.95080000
   158  H          0.62780000       0.88320000       0.04920000
   159  H          0.42830000       0.13820000       0.86580000
   160  H          0.57170000       0.86180000       0.13420000
   161  C          0.41886000       0.29307000       0.92586000
   162  C          0.58114000       0.70693000       0.07414000
   163  H          0.42110000       0.32600000       0.98410000
   164  H          0.57890000       0.67400000       0.01590000
   165  H          0.32790000       0.27450000       0.88860000
   166  H          0.67210000       0.72550000       0.11140000
   167  H          0.49240000       0.35530000       0.90540000
   168  H          0.50760000       0.64470000       0.09460000
