data_ETEDOX01
_symmetry_space_group_name_H-M    'P1'
_symmetry_Int_Tables_number       1
loop_
_symmetry_equiv_pos_site_id
_symmetry_equiv_pos_as_xyz
1 x,y,z
_cell_length_a                   4.727101
_cell_length_b                   16.02393
_cell_length_c                   22.64504
_cell_angle_alpha                90.0
_cell_angle_beta                 93.7503
_cell_angle_gamma                90.0
loop_
_atom_site_label
_atom_site_type_symbol
_atom_site_fract_x
_atom_site_fract_y
_atom_site_fract_z
     1  S          0.61568000       0.55043600       0.08720400
     2  S          0.38432000       0.05043600       0.41279600
     3  S          0.38432000       0.44956400       0.91279600
     4  S          0.61568000       0.94956400       0.58720400
     5  S         -0.02632000       0.92559500       0.07849400
     6  S          0.02632000       0.42559500       0.42150600
     7  S          0.02632000       0.07440500       0.92150600
     8  S         -0.02632000       0.57440500       0.57849400
     9  O          0.11536000       0.68567150       0.94929890
    10  O          0.88464000       0.18567150       0.55070110
    11  O          0.88464000       0.31432850       0.05070110
    12  O          0.11536000       0.81432850       0.44929890
    13  O          0.82774000       0.60723150       0.88802890
    14  O          0.17226000       0.10723150       0.61197110
    15  O          0.17226000       0.39276850       0.11197110
    16  O          0.82774000       0.89276850       0.38802890
    17  O          0.62726000       0.80769150       0.96255890
    18  O          0.37274000       0.30769150       0.53744110
    19  O          0.37274000       0.19230850       0.03744110
    20  O          0.62726000       0.69230850       0.46255890
    21  O          0.46746000       0.91080150       0.90065890
    22  O          0.53254000       0.41080150       0.59934110
    23  O          0.53254000       0.08919850       0.09934110
    24  O          0.46746000       0.58919850       0.40065890
    25  N          0.77093000       0.60008180       0.98406870
    26  N          0.22907000       0.10008180       0.51593130
    27  N          0.22907000       0.39991820       0.01593130
    28  N          0.77093000       0.89991820       0.48406870
    29  H          0.63640000       0.56341900       0.97058300
    30  H          0.36360000       0.06341900       0.52941700
    31  H          0.36360000       0.43658100       0.02941700
    32  H          0.63640000       0.93658100       0.47058300
    33  N          0.96753000       0.67655180       0.06149130
    34  N          0.03247000       0.17655180       0.43850870
    35  N          0.03247000       0.32344820       0.93850870
    36  N          0.96753000       0.82344820       0.56149130
    37  H          0.04780000       0.69720000       0.02941200
    38  H          0.95220000       0.19720000       0.47058800
    39  H          0.95220000       0.30280000       0.97058800
    40  H          0.04780000       0.80280000       0.52941200
    41  N          0.34306000       0.80401170       0.06172130
    42  N          0.65694000       0.30401170       0.43827870
    43  N          0.65694000       0.19598830       0.93827870
    44  N          0.34306000       0.69598830       0.56172130
    45  H          0.47860000       0.78820000       0.03831400
    46  H          0.52140000       0.28820000       0.46168600
    47  H          0.52140000       0.21180000       0.96168600
    48  H          0.47860000       0.71180000       0.53831400
    49  N          0.29146000       0.90364170       0.98787870
    50  N          0.70854000       0.40364170       0.51212130
    51  N          0.70854000       0.09635830       0.01212130
    52  N          0.29146000       0.59635830       0.48787870
    53  H          0.18270000       0.94771700       0.97688400
    54  H          0.81730000       0.44771700       0.52311600
    55  H          0.81730000       0.05228300       0.02311600
    56  H          0.18270000       0.55228300       0.47688400
    57  C          0.88459000       0.57763000       0.78713830
    58  C          0.11541000       0.07763000       0.71286170
    59  C          0.11541000       0.42237000       0.21286170
    60  C          0.88459000       0.92237000       0.28713830
    61  H          0.93150000       0.51910000       0.79580000
    62  H          0.06850000       0.01910000       0.70420000
    63  H          0.06850000       0.48090000       0.20420000
    64  H          0.93150000       0.98090000       0.29580000
    65  H         -0.02380000       0.59520000       0.75160000
    66  H          0.02380000       0.09520000       0.74840000
    67  H          0.02380000       0.40480000       0.24840000
    68  H         -0.02380000       0.90480000       0.25160000
    69  H          0.67860000       0.58350000       0.78050000
    70  H          0.32140000       0.08350000       0.71950000
    71  H          0.32140000       0.41650000       0.21950000
    72  H          0.67860000       0.91650000       0.28050000
    73  C         -0.01209000       0.63122000       0.83858840
    74  C          0.01209000       0.13122000       0.66141160
    75  C          0.01209000       0.36878000       0.16141160
    76  C         -0.01209000       0.86878000       0.33858840
    77  H          0.19310000       0.62210000       0.84810000
    78  H          0.80690000       0.12210000       0.65190000
    79  H          0.80690000       0.37790000       0.15190000
    80  H          0.19310000       0.87790000       0.34810000
    81  H          0.95710000       0.69090000       0.82910000
    82  H          0.04290000       0.19090000       0.67090000
    83  H          0.04290000       0.30910000       0.17090000
    84  H          0.95710000       0.80910000       0.32910000
    85  C          0.92302000       0.63622000       0.94093840
    86  C          0.07698000       0.13622000       0.55906160
    87  C          0.07698000       0.36378000       0.05906160
    88  C          0.92302000       0.86378000       0.44093840
    89  C          0.79772000       0.61252000       0.04492160
    90  C          0.20228000       0.11252000       0.45507840
    91  C          0.20228000       0.38748000       0.95507840
    92  C          0.79772000       0.88748000       0.54492160
    93  C          0.08228000       0.70242000       0.11788150
    94  C          0.91772000       0.20242000       0.38211850
    95  C          0.91772000       0.29758000       0.88211850
    96  C          0.08228000       0.79758000       0.61788150
    97  C          0.01569000       0.66992000       0.17185160
    98  C         -0.01569000       0.16992000       0.32814840
    99  C         -0.01569000       0.33008000       0.82814840
   100  C          0.01569000       0.83008000       0.67185160
   101  H          0.87620000       0.62730000       0.17340000
   102  H          0.12380000       0.12730000       0.32660000
   103  H          0.12380000       0.37270000       0.82660000
   104  H          0.87620000       0.87270000       0.67340000
   105  C          0.15268000       0.69942000       0.22384160
   106  C          0.84732000       0.19942000       0.27615840
   107  C          0.84732000       0.30058000       0.77615840
   108  C          0.15268000       0.80058000       0.72384160
   109  H          0.10480000       0.67690000       0.26070000
   110  H          0.89520000       0.17690000       0.23930000
   111  H          0.89520000       0.32310000       0.73930000
   112  H          0.10480000       0.82310000       0.76070000
   113  C          0.35699000       0.76092000       0.22302170
   114  C          0.64301000       0.26092000       0.27697830
   115  C          0.64301000       0.23908000       0.77697830
   116  C          0.35699000       0.73908000       0.72302170
   117  H          0.45170000       0.77940000       0.25890000
   118  H          0.54830000       0.27940000       0.24110000
   119  H          0.54830000       0.22060000       0.74110000
   120  H          0.45170000       0.72060000       0.75890000
   121  C          0.42289000       0.79532000       0.16928160
   122  C          0.57711000       0.29532000       0.33071840
   123  C          0.57711000       0.20468000       0.83071840
   124  C          0.42289000       0.70468000       0.66928160
   125  H          0.56230000       0.83790000       0.16820000
   126  H          0.43770000       0.33790000       0.33180000
   127  H          0.43770000       0.16210000       0.83180000
   128  H          0.56230000       0.66210000       0.66820000
   129  C          0.28297000       0.76712000       0.11709150
   130  C          0.71703000       0.26712000       0.38290850
   131  C          0.71703000       0.23288000       0.88290850
   132  C          0.28297000       0.73288000       0.61709150
   133  C          0.21747000       0.87452000       0.04227150
   134  C          0.78253000       0.37452000       0.45772850
   135  C          0.78253000       0.12548000       0.95772850
   136  C          0.21747000       0.62548000       0.54227150
   137  C          0.48048000       0.86772000       0.95165850
   138  C          0.51952000       0.36772000       0.54834150
   139  C          0.51952000       0.13228000       0.04834150
   140  C          0.48048000       0.63228000       0.45165850
   141  C          0.65899000       0.88382000       0.85681840
   142  C          0.34101000       0.38382000       0.64318160
   143  C          0.34101000       0.11618000       0.14318160
   144  C          0.65899000       0.61618000       0.35681840
   145  H          0.61230000       0.82640000       0.84330000
   146  H          0.38770000       0.32640000       0.65670000
   147  H          0.38770000       0.17360000       0.15670000
   148  H          0.61230000       0.67360000       0.34330000
   149  H          0.85770000       0.88490000       0.87360000
   150  H          0.14230000       0.38490000       0.62640000
   151  H          0.14230000       0.11510000       0.12640000
   152  H          0.85770000       0.61510000       0.37360000
   153  C          0.61821000       0.94432000       0.80646830
   154  C          0.38179000       0.44432000       0.69353170
   155  C          0.38179000       0.05568000       0.19353170
   156  C          0.61821000       0.55568000       0.30646830
   157  H          0.41910000       0.94390000       0.79140000
   158  H          0.58090000       0.44390000       0.70860000
   159  H          0.58090000       0.05610000       0.20860000
   160  H          0.41910000       0.55610000       0.29140000
   161  H          0.73860000       0.92810000       0.77480000
   162  H          0.26140000       0.42810000       0.72520000
   163  H          0.26140000       0.07190000       0.22520000
   164  H          0.73860000       0.57190000       0.27480000
   165  H          0.67040000       0.00050000       0.82030000
   166  H          0.32960000       0.50050000       0.67970000
   167  H          0.32960000      -0.00050000       0.17970000
   168  H          0.67040000       0.49950000       0.32030000
