data_ETEDOX
_symmetry_space_group_name_H-M    'P1'
_symmetry_Int_Tables_number       1
loop_
_symmetry_equiv_pos_site_id
_symmetry_equiv_pos_as_xyz
1 x,y,z
_cell_length_a                   7.991101
_cell_length_b                   9.67502
_cell_length_c                   12.51093
_cell_angle_alpha                69.0553
_cell_angle_beta                 81.2703
_cell_angle_gamma                73.0333
loop_
_atom_site_label
_atom_site_type_symbol
_atom_site_fract_x
_atom_site_fract_y
_atom_site_fract_z
     1  S          0.00043800       0.85421600       0.18110500
     2  S         -0.00043800       0.14578400       0.81889500
     3  S          0.42745700       0.53130700       0.23794500
     4  S          0.57254300       0.46869300       0.76205500
     5  O          0.62478000       0.75622000      -0.00915160
     6  O          0.37522000       0.24378000       0.00915160
     7  O          0.68407000       0.96742000       0.85638840
     8  O          0.31593000       0.03258000       0.14361160
     9  O          0.08262000       0.62712000       0.94598840
    10  O          0.91738000       0.37288000       0.05401160
    11  O          0.27812000       0.75754180       0.84382860
    12  O          0.72188000       0.24245820       0.15617140
    13  N          0.78847000       0.89482000       0.02512190
    14  N          0.21153000       0.10518000       0.97487810
    15  H          0.84170000       0.96730000      -0.00920000
    16  H          0.15830000       0.03270000       0.00920000
    17  N          0.79878000       0.67552000       0.18383180
    18  N          0.20122000       0.32448000       0.81616820
    19  H          0.71970000       0.66230000       0.14820000
    20  H          0.28030000       0.33770000       0.85180000
    21  N          0.14132000       0.50302000       0.16795170
    22  N          0.85868000       0.49698000       0.83204830
    23  H          0.08530000       0.53130000       0.10351800
    24  H          0.91470000       0.46870000       0.89648200
    25  N          0.32513000       0.62252000       0.02731180
    26  N          0.67487000       0.37748000       0.97268820
    27  H          0.41930000       0.66030000       0.01020000
    28  H          0.58070000       0.33970000      -0.01020000
    29  C          0.61865000       0.07184000       0.66297000
    30  C          0.38135000       0.92816000       0.33703000
    31  H          0.59550000       0.17220000       0.67240000
    32  H          0.40450000       0.82780000       0.32760000
    33  H          0.54330000       0.07870000       0.60540000
    34  H          0.45670000       0.92130000       0.39460000
    35  H          0.74180000       0.03990000       0.63780000
    36  H          0.25820000       0.96010000       0.36220000
    37  C          0.58156000       0.95723000       0.77458000
    38  C          0.41844000       0.04277000       0.22542000
    39  H          0.45520000       0.98180000       0.79760000
    40  H          0.54480000       0.01820000       0.20240000
    41  H          0.61710000       0.85290000       0.76920000
    42  H          0.38290000       0.14710000       0.23080000
    43  C          0.69207000       0.86283000       0.95928000
    44  C          0.30793000       0.13717000       0.04072000
    45  C          0.85587000       0.80182000       0.13032000
    46  C          0.14413000       0.19818000       0.86968000
    47  C          0.87527000       0.55692000       0.28402000
    48  C          0.12473000       0.44308000       0.71598000
    49  C          0.77497000       0.52253000       0.38632000
    50  C          0.22503000       0.47747000       0.61368000
    51  H          0.65730000       0.58070000       0.39070000
    52  H          0.34270000       0.41930000       0.60930000
    53  C          0.84616000       0.40363000       0.48182000
    54  C          0.15384000       0.59637000       0.51818000
    55  H          0.77770000       0.38070000       0.55180000
    56  H          0.22230000       0.61930000       0.44820000
    57  C          0.01734000       0.31793000       0.47512000
    58  C          0.98266000       0.68207000       0.52488000
    59  H          0.06580000       0.23630000       0.54070000
    60  H          0.93420000       0.76370000       0.45930000
    61  C          0.11913000       0.35073000       0.37252000
    62  C          0.88087000       0.64927000       0.62748000
    63  H          0.23660000       0.29170000       0.36870000
    64  H          0.76340000       0.70830000       0.63130000
    65  C          0.04853000       0.46942000       0.27632000
    66  C          0.95147000       0.53058000       0.72368000
    67  C          0.28863000       0.55142000       0.14292000
    68  C          0.71137000       0.44858000       0.85708000
    69  C          0.21663000       0.66642000       0.93868000
    70  C          0.78337000       0.33358000       0.06132000
    71  C          0.17843000       0.79933000       0.74308000
    72  C          0.82157000       0.20067000       0.25692000
    73  H          0.05790000       0.85970000       0.75460000
    74  H          0.94210000       0.14030000       0.24540000
    75  H          0.17140000       0.70590000       0.73040000
    76  H          0.82860000       0.29410000       0.26960000
    77  C          0.26994000       0.89183000       0.64228000
    78  C          0.73006000       0.10817000       0.35772000
    79  H          0.27310000       0.98540000       0.65470000
    80  H          0.72690000       0.01460000       0.34530000
    81  H          0.20690000       0.91900000       0.57330000
    82  H          0.79310000       0.08100000       0.42670000
    83  H          0.38980000       0.83190000       0.63260000
    84  H          0.61020000       0.16810000       0.36740000
