data_ETEYUX01
_symmetry_space_group_name_H-M    'P1'
_symmetry_Int_Tables_number       1
loop_
_symmetry_equiv_pos_site_id
_symmetry_equiv_pos_as_xyz
1 x,y,z
_cell_length_a                   13.3382
_cell_length_b                   12.9852
_cell_length_c                   13.8242
_cell_angle_alpha                90.0
_cell_angle_beta                 115.1052
_cell_angle_gamma                90.0
loop_
_atom_site_label
_atom_site_type_symbol
_atom_site_fract_x
_atom_site_fract_y
_atom_site_fract_z
     1  O          0.07382000       0.31788150       0.38020170
     2  O          0.92618000       0.31788150       0.11979830
     3  O          0.57382000       0.81788150       0.38020170
     4  O          0.42618000       0.81788150       0.11979830
     5  O          0.92618000       0.68211850       0.61979830
     6  O          0.07382000       0.68211850       0.88020170
     7  O          0.42618000       0.18211850       0.61979830
     8  O          0.57382000       0.18211850       0.88020170
     9  H          0.09600000       0.28020000       0.34790000
    10  H          0.90400000       0.28020000       0.15210000
    11  H          0.59600000       0.78020000       0.34790000
    12  H          0.40400000       0.78020000       0.15210000
    13  H          0.90400000       0.71980000       0.65210000
    14  H          0.09600000       0.71980000       0.84790000
    15  H          0.40400000       0.21980000       0.65210000
    16  H          0.59600000       0.21980000       0.84790000
    17  O          0.36809170       0.01543150       0.09353160
    18  O          0.63190830       0.01543150       0.40646840
    19  O          0.86809170       0.51543150       0.09353160
    20  O          0.13190830       0.51543150       0.40646840
    21  O          0.63190830       0.98456850       0.90646840
    22  O          0.36809170       0.98456850       0.59353160
    23  O          0.13190830       0.48456850       0.90646840
    24  O          0.86809170       0.48456850       0.59353160
    25  H          0.38730000       0.95580000       0.10590000
    26  H          0.61270000       0.95580000       0.39410000
    27  H          0.88730000       0.45580000       0.10590000
    28  H          0.11270000       0.45580000       0.39410000
    29  H          0.61270000       0.04420000       0.89410000
    30  H          0.38730000       0.04420000       0.60590000
    31  H          0.11270000       0.54420000       0.89410000
    32  H          0.88730000       0.54420000       0.60590000
    33  N          0.16285180       0.15791160       0.34262180
    34  N          0.83714820       0.15791160       0.15737820
    35  N          0.66285180       0.65791160       0.34262180
    36  N          0.33714820       0.65791160       0.15737820
    37  N          0.83714820       0.84208840       0.65737820
    38  N          0.16285180       0.84208840       0.84262180
    39  N          0.33714820       0.34208840       0.65737820
    40  N          0.66285180       0.34208840       0.84262180
    41  C          0.06292000       0.26662000       0.45732000
    42  C          0.93708000       0.26662000       0.04268000
    43  C          0.56292000       0.76662000       0.45732000
    44  C          0.43708000       0.76662000       0.04268000
    45  C          0.93708000       0.73338000       0.54268000
    46  C          0.06292000       0.73338000       0.95732000
    47  C          0.43708000       0.23338000       0.54268000
    48  C          0.56292000       0.23338000       0.95732000
    49  C          0.01702000       0.31262000       0.51942000
    50  C          0.98298000       0.31262000       0.98058000
    51  C          0.51702000       0.81262000       0.51942000
    52  C          0.48298000       0.81262000       0.98058000
    53  C          0.98298000       0.68738000       0.48058000
    54  C          0.01702000       0.68738000       0.01942000
    55  C          0.48298000       0.18738000       0.48058000
    56  C          0.51702000       0.18738000       0.01942000
    57  H         -0.00580000       0.38090000       0.50670000
    58  H          0.00580000       0.38090000      -0.00670000
    59  H          0.49420000       0.88090000       0.50670000
    60  H          0.50580000       0.88090000      -0.00670000
    61  H          0.00580000       0.61910000       0.49330000
    62  H         -0.00580000       0.61910000       0.00670000
    63  H          0.50580000       0.11910000       0.49330000
    64  H          0.49420000       0.11910000       0.00670000
    65  C          0.00462000       0.25993000       0.59863000
    66  C         -0.00462000       0.25993000       0.90137000
    67  C          0.50462000       0.75993000       0.59863000
    68  C          0.49538000       0.75993000       0.90137000
    69  C         -0.00462000       0.74007000       0.40137000
    70  C          0.00462000       0.74007000       0.09863000
    71  C          0.49538000       0.24007000       0.40137000
    72  C          0.50462000       0.24007000       0.09863000
    73  H          0.97450000       0.29300000       0.63980000
    74  H          0.02550000       0.29300000       0.86020000
    75  H          0.47450000       0.79300000       0.63980000
    76  H          0.52550000       0.79300000       0.86020000
    77  H          0.02550000       0.70700000       0.36020000
    78  H          0.97450000       0.70700000       0.13980000
    79  H          0.52550000       0.20700000       0.36020000
    80  H          0.47450000       0.20700000       0.13980000
    81  C          0.03623000       0.15723000       0.61883000
    82  C          0.96377000       0.15723000       0.88117000
    83  C          0.53623000       0.65723000       0.61883000
    84  C          0.46377000       0.65723000       0.88117000
    85  C          0.96377000       0.84277000       0.38117000
    86  C          0.03623000       0.84277000       0.11883000
    87  C          0.46377000       0.34277000       0.38117000
    88  C          0.53623000       0.34277000       0.11883000
    89  H          0.02620000       0.12120000       0.67220000
    90  H          0.97380000       0.12120000       0.82780000
    91  H          0.52620000       0.62120000       0.67220000
    92  H          0.47380000       0.62120000       0.82780000
    93  H          0.97380000       0.87880000       0.32780000
    94  H          0.02620000       0.87880000       0.17220000
    95  H          0.47380000       0.37880000       0.32780000
    96  H          0.52620000       0.37880000       0.17220000
    97  C          0.08223000       0.11003000       0.55913000
    98  C          0.91777000       0.11003000       0.94087000
    99  C          0.58223000       0.61003000       0.55913000
   100  C          0.41777000       0.61003000       0.94087000
   101  C          0.91777000       0.88997000       0.44087000
   102  C          0.08223000       0.88997000       0.05913000
   103  C          0.41777000       0.38997000       0.44087000
   104  C          0.58223000       0.38997000       0.05913000
   105  H          0.10440000       0.04160000       0.57310000
   106  H          0.89560000       0.04160000       0.92690000
   107  H          0.60440000       0.54160000       0.57310000
   108  H          0.39560000       0.54160000       0.92690000
   109  H          0.89560000       0.95840000       0.42690000
   110  H          0.10440000       0.95840000       0.07310000
   111  H          0.39560000       0.45840000       0.42690000
   112  H          0.60440000       0.45840000       0.07310000
   113  C          0.09682000       0.16192000       0.47742000
   114  C          0.90318000       0.16192000       0.02258000
   115  C          0.59682000       0.66192000       0.47742000
   116  C          0.40318000       0.66192000       0.02258000
   117  C          0.90318000       0.83808000       0.52258000
   118  C          0.09682000       0.83808000       0.97742000
   119  C          0.40318000       0.33808000       0.52258000
   120  C          0.59682000       0.33808000       0.97742000
   121  C          0.14662000       0.11192000       0.41732000
   122  C          0.85338000       0.11192000       0.08268000
   123  C          0.64662000       0.61192000       0.41732000
   124  C          0.35338000       0.61192000       0.08268000
   125  C          0.85338000       0.88808000       0.58268000
   126  C          0.14662000       0.88808000       0.91732000
   127  C          0.35338000       0.38808000       0.58268000
   128  C          0.64662000       0.38808000       0.91732000
   129  H          0.16830000       0.04350000       0.43250000
   130  H          0.83170000       0.04350000       0.06750000
   131  H          0.66830000       0.54350000       0.43250000
   132  H          0.33170000       0.54350000       0.06750000
   133  H          0.83170000       0.95650000       0.56750000
   134  H          0.16830000       0.95650000       0.93250000
   135  H          0.33170000       0.45650000       0.56750000
   136  H          0.66830000       0.45650000       0.93250000
   137  C          0.21672000       0.11637190       0.28242000
   138  C          0.78328000       0.11637190       0.21758000
   139  C          0.71672000       0.61637190       0.28242000
   140  C          0.28328000       0.61637190       0.21758000
   141  C          0.78328000       0.88362810       0.71758000
   142  C          0.21672000       0.88362810       0.78242000
   143  C          0.28328000       0.38362810       0.71758000
   144  C          0.71672000       0.38362810       0.78242000
   145  C          0.27972000       0.02652000       0.30962000
   146  C          0.72028000       0.02652000       0.19038000
   147  C          0.77972000       0.52652000       0.30962000
   148  C          0.22028000       0.52652000       0.19038000
   149  C          0.72028000       0.97348000       0.69038000
   150  C          0.27972000       0.97348000       0.80962000
   151  C          0.22028000       0.47348000       0.69038000
   152  C          0.77972000       0.47348000       0.80962000
   153  H          0.28680000      -0.01060000       0.36970000
   154  H          0.71320000      -0.01060000       0.13030000
   155  H          0.78680000       0.48940000       0.36970000
   156  H          0.21320000       0.48940000       0.13030000
   157  H          0.71320000       0.01060000       0.63030000
   158  H          0.28680000       0.01060000       0.86970000
   159  H          0.21320000       0.51060000       0.63030000
   160  H          0.78680000       0.51060000       0.86970000
   161  C          0.33132000      -0.00773190       0.24832000
   162  C          0.66868000      -0.00773190       0.25168000
   163  C          0.83132000       0.49226810       0.24832000
   164  C          0.16868000       0.49226810       0.25168000
   165  C          0.66868000       0.00773190       0.75168000
   166  C          0.33132000       0.00773190       0.74832000
   167  C          0.16868000       0.50773190       0.75168000
   168  C          0.83132000       0.50773190       0.74832000
   169  H          0.37340000       0.93230000       0.26730000
   170  H          0.62660000       0.93230000       0.23270000
   171  H          0.87340000       0.43230000       0.26730000
   172  H          0.12660000       0.43230000       0.23270000
   173  H          0.62660000       0.06770000       0.73270000
   174  H          0.37340000       0.06770000       0.76730000
   175  H          0.12660000       0.56770000       0.73270000
   176  H          0.87340000       0.56770000       0.76730000
   177  C          0.32112000       0.04662000       0.15822000
   178  C          0.67888000       0.04662000       0.34178000
   179  C          0.82112000       0.54662000       0.15822000
   180  C          0.17888000       0.54662000       0.34178000
   181  C          0.67888000       0.95338000       0.84178000
   182  C          0.32112000       0.95338000       0.65822000
   183  C          0.17888000       0.45338000       0.84178000
   184  C          0.82112000       0.45338000       0.65822000
   185  C          0.25962000       0.13712000       0.13182000
   186  C          0.74038000       0.13712000       0.36818000
   187  C          0.75962000       0.63712000       0.13182000
   188  C          0.24038000       0.63712000       0.36818000
   189  C          0.74038000       0.86288000       0.86818000
   190  C          0.25962000       0.86288000       0.63182000
   191  C          0.24038000       0.36288000       0.86818000
   192  C          0.75962000       0.36288000       0.63182000
   193  H          0.25300000       0.17470000       0.07210000
   194  H          0.74700000       0.17470000       0.42790000
   195  H          0.75300000       0.67470000       0.07210000
   196  H          0.24700000       0.67470000       0.42790000
   197  H          0.74700000       0.82530000       0.92790000
   198  H          0.25300000       0.82530000       0.57210000
   199  H          0.24700000       0.32530000       0.92790000
   200  H          0.75300000       0.32530000       0.57210000
   201  C          0.20892000       0.17092000       0.19392000
   202  C          0.79108000       0.17092000       0.30608000
   203  C          0.70892000       0.67092000       0.19392000
   204  C          0.29108000       0.67092000       0.30608000
   205  C          0.79108000       0.82908000       0.80608000
   206  C          0.20892000       0.82908000       0.69392000
   207  C          0.29108000       0.32908000       0.80608000
   208  C          0.70892000       0.32908000       0.69392000
   209  H          0.16840000       0.23170000       0.17590000
   210  H          0.83160000       0.23170000       0.32410000
   211  H          0.66840000       0.73170000       0.17590000
   212  H          0.33160000       0.73170000       0.32410000
   213  H          0.83160000       0.76830000       0.82410000
   214  H          0.16840000       0.76830000       0.67590000
   215  H          0.33160000       0.26830000       0.82410000
   216  H          0.66840000       0.26830000       0.67590000
