data_ETEYUX02
_symmetry_space_group_name_H-M    'P1'
_symmetry_Int_Tables_number       1
loop_
_symmetry_equiv_pos_site_id
_symmetry_equiv_pos_as_xyz
1 x,y,z
_cell_length_a                   12.814315
_cell_length_b                   5.78387
_cell_length_c                   14.808818
_cell_angle_alpha                90.0
_cell_angle_beta                 107.9094
_cell_angle_gamma                90.0
loop_
_atom_site_label
_atom_site_type_symbol
_atom_site_fract_x
_atom_site_fract_y
_atom_site_fract_z
     1  C          0.81478870       0.19993000       0.00962120
     2  C          0.18521130       0.69993000       0.49037880
     3  C          0.18521130       0.80007000      -0.00962120
     4  C          0.81478870       0.30007000       0.50962120
     5  C          0.70607860       0.24043000       0.95694870
     6  C          0.29392140       0.74043000       0.54305130
     7  C          0.29392140       0.75957000       0.04305130
     8  C          0.70607860       0.25957000       0.45694870
     9  H          0.68680000       0.37710000       0.92280000
    10  H          0.31320000       0.87710000       0.57720000
    11  H          0.31320000       0.62290000       0.07720000
    12  H          0.68680000       0.12290000       0.42280000
    13  C          0.62680860       0.07754000       0.95551870
    14  C          0.37319140       0.57754000       0.54448130
    15  C          0.37319140       0.92246000       0.04448130
    16  C          0.62680860       0.42246000       0.45551870
    17  H          0.55420000       0.10620000       0.92060000
    18  H          0.44580000       0.60620000       0.57940000
    19  H          0.44580000       0.89380000       0.07940000
    20  H          0.55420000       0.39380000       0.42060000
    21  C          0.65379860       0.87216000       0.00531130
    22  C          0.34620140       0.37216000       0.49468870
    23  C          0.34620140       0.12784000      -0.00531130
    24  C          0.65379860       0.62784000       0.50531130
    25  H          0.59990000       0.76310000       0.00370000
    26  H          0.40010000       0.26310000       0.49630000
    27  H          0.40010000       0.23690000      -0.00370000
    28  H          0.59990000       0.73690000       0.50370000
    29  C          0.76159860       0.83157000       0.05725120
    30  C          0.23840140       0.33157000       0.44274880
    31  C          0.23840140       0.16843000       0.94274880
    32  C          0.76159860       0.66843000       0.55725120
    33  H          0.78000000       0.69340000       0.09040000
    34  H          0.22000000       0.19340000       0.40960000
    35  H          0.22000000       0.30660000       0.90960000
    36  H          0.78000000       0.80660000       0.59040000
    37  C          0.84348870      -0.00713000       0.06108110
    38  C          0.15651130       0.49287000       0.43891890
    39  C          0.15651130       0.00713000       0.93891890
    40  C          0.84348870       0.50713000       0.56108110
    41  C          0.95534870       0.94457000       0.11754110
    42  C          0.04465130       0.44457000       0.38245890
    43  C          0.04465130       0.05543000       0.88245890
    44  C          0.95534870       0.55543000       0.61754110
    45  H          0.97210000       0.80090000       0.14650000
    46  H          0.02790000       0.30090000       0.35350000
    47  H          0.02790000       0.19910000       0.85350000
    48  H          0.97210000       0.69910000       0.64650000
    49  C          0.14133130       0.05123000       0.18503110
    50  C          0.85866870       0.55123000       0.31496890
    51  C          0.85866870       0.94877000       0.81496890
    52  C          0.14133130       0.44877000       0.68503110
    53  C          0.17658140       0.85527000       0.24106120
    54  C          0.82341860       0.35527000       0.25893880
    55  C          0.82341860       0.14473000       0.75893880
    56  C          0.17658140       0.64473000       0.74106120
    57  H          0.12610000       0.74170000       0.24340000
    58  H          0.87390000       0.24170000       0.25660000
    59  H          0.87390000       0.25830000       0.75660000
    60  H          0.12610000       0.75830000       0.74340000
    61  C          0.28537150       0.82827000       0.29296130
    62  C          0.71462850       0.32827000       0.20703870
    63  C          0.71462850       0.17173000       0.70703870
    64  C          0.28537150       0.67173000       0.79296130
    65  H          0.30890000       0.69800000       0.33050000
    66  H          0.69110000       0.19800000       0.16950000
    67  H          0.69110000       0.30200000       0.66950000
    68  H          0.30890000       0.80200000       0.83050000
    69  C          0.35800140      -0.00194000       0.28792130
    70  C          0.64199860       0.49806000       0.21207870
    71  C          0.64199860       0.00194000       0.71207870
    72  C          0.35800140       0.50194000       0.78792130
    73  C          0.32690150       0.19434000       0.23458140
    74  C          0.67309850       0.69434000       0.26541860
    75  C          0.67309850       0.80566000       0.76541860
    76  C          0.32690150       0.30566000       0.73458140
    77  H          0.37790000       0.30730000       0.23290000
    78  H          0.62210000       0.80730000       0.26710000
    79  H          0.62210000       0.69270000       0.76710000
    80  H          0.37790000       0.19270000       0.73290000
    81  C          0.21737140       0.21933000       0.18332120
    82  C          0.78262860       0.71933000       0.31667880
    83  C          0.78262860       0.78067000       0.81667880
    84  C          0.21737140       0.28067000       0.68332120
    85  H          0.19440000       0.35170000       0.14700000
    86  H          0.80560000       0.85170000       0.35300000
    87  H          0.80560000       0.64830000       0.85300000
    88  H          0.19440000       0.14830000       0.64700000
    89  N          0.03182110       0.09402000       0.12876100
    90  N          0.96817890       0.59402000       0.37123900
    91  N          0.96817890       0.90598000       0.87123900
    92  N          0.03182110       0.40598000       0.62876100
    93  O          0.89035890       0.36222000       0.00894100
    94  O          0.10964110       0.86222000       0.49105900
    95  O          0.10964110       0.63778000      -0.00894100
    96  O          0.89035890       0.13778000       0.50894100
    97  H          0.95100000       0.31910000       0.04210000
    98  H          0.04900000       0.81910000       0.45790000
    99  H          0.04900000       0.68090000       0.95790000
   100  H          0.95100000       0.18090000       0.54210000
   101  O          0.46506900       0.97147000       0.33894100
   102  O          0.53493100       0.47147000       0.16105900
   103  O          0.53493100       0.02853000       0.66105900
   104  O          0.46506900       0.52853000       0.83894100
   105  H          0.49940000       0.92510000       0.30410000
   106  H          0.50060000       0.42510000       0.19590000
   107  H          0.50060000       0.07490000       0.69590000
   108  H          0.49940000       0.57490000       0.80410000
