data_ETEYUX
_symmetry_space_group_name_H-M    'P1'
_symmetry_Int_Tables_number       1
loop_
_symmetry_equiv_pos_site_id
_symmetry_equiv_pos_as_xyz
1 x,y,z
_cell_length_a                   22.0415
_cell_length_b                   10.8205
_cell_length_c                   8.9245
_cell_angle_alpha                90.0
_cell_angle_beta                 91.5505
_cell_angle_gamma                90.0
loop_
_atom_site_label
_atom_site_type_symbol
_atom_site_fract_x
_atom_site_fract_y
_atom_site_fract_z
     1  C          0.50378700       0.28374150       0.12481190
     2  C          0.49621300       0.78374150       0.37518810
     3  C          0.49621300       0.71625850       0.87518810
     4  C          0.50378700       0.21625850       0.62481190
     5  C          0.46044800       0.19610150       0.15482000
     6  C          0.53955200       0.69610150       0.34518000
     7  C          0.53955200       0.80389850       0.84518000
     8  C          0.46044800       0.30389850       0.65482000
     9  H          0.46440000       0.11690000       0.11570000
    10  H          0.53560000       0.61690000       0.38430000
    11  H          0.53560000       0.88310000       0.88430000
    12  H          0.46440000       0.38310000       0.61570000
    13  C          0.41133800       0.22326160       0.24172000
    14  C          0.58866200       0.72326160       0.25828000
    15  C          0.58866200       0.77673840       0.75828000
    16  C          0.41133800       0.27673840       0.74172000
    17  H          0.38260000       0.16280000       0.26090000
    18  H          0.61740000       0.66280000       0.23910000
    19  H          0.61740000       0.83720000       0.73910000
    20  H          0.38260000       0.33720000       0.76090000
    21  C          0.40507800       0.34000150       0.29974190
    22  C          0.59492200       0.84000150       0.20025810
    23  C          0.59492200       0.65999850       0.70025810
    24  C          0.40507800       0.15999850       0.79974190
    25  C          0.44752800       0.42928150       0.26882000
    26  C          0.55247200       0.92928150       0.23118000
    27  C          0.55247200       0.57071850       0.73118000
    28  C          0.44752800       0.07071850       0.76882000
    29  H          0.44300000       0.50880000       0.30630000
    30  H          0.55700000       0.00880000       0.19370000
    31  H          0.55700000       0.49120000       0.69370000
    32  H          0.44300000      -0.00880000       0.80630000
    33  C          0.49673800       0.40140150       0.18229190
    34  C          0.50326200       0.90140150       0.31770810
    35  C          0.50326200       0.59859850       0.81770810
    36  C          0.49673800       0.09859850       0.68229190
    37  H          0.52530000       0.46210000       0.16260000
    38  H          0.47470000       0.96210000       0.33740000
    39  H          0.47470000       0.53790000       0.83740000
    40  H          0.52530000       0.03790000       0.66260000
    41  C          0.59142800       0.31990160       0.97858810
    42  C          0.40857200       0.81990160       0.52141190
    43  C          0.40857200       0.68009840       0.02141190
    44  C          0.59142800       0.18009840       0.47858810
    45  H          0.58710000       0.40440000      -0.00610000
    46  H          0.41290000       0.90440000       0.50610000
    47  H          0.41290000       0.59560000       0.00610000
    48  H          0.58710000       0.09560000       0.49390000
    49  C          0.64057700       0.27600150       0.89069820
    50  C          0.35942300       0.77600150       0.60930180
    51  C          0.35942300       0.72399850       0.10930180
    52  C          0.64057700       0.22399850       0.39069820
    53  C          0.65067800       0.14915160       0.87148000
    54  C          0.34932200       0.64915160       0.62852000
    55  C          0.34932200       0.85084840       0.12852000
    56  C          0.65067800       0.35084840       0.37148000
    57  C          0.69856900       0.10988180       0.78498000
    58  C          0.30143100       0.60988180       0.71502000
    59  C          0.30143100       0.89011820       0.21502000
    60  C          0.69856900       0.39011820       0.28498000
    61  H          0.70560000       0.02580000       0.77230000
    62  H          0.29440000       0.52580000       0.72770000
    63  H          0.29440000       0.97420000       0.22770000
    64  H          0.70560000       0.47420000       0.27230000
    65  C          0.73536900       0.19442000       0.71858000
    66  C          0.26463100       0.69442000       0.78142000
    67  C          0.26463100       0.80558000       0.28142000
    68  C          0.73536900       0.30558000       0.21858000
    69  H          0.76700000       0.16730000       0.66010000
    70  H          0.23300000       0.66730000       0.83990000
    71  H          0.23300000       0.83270000       0.33990000
    72  H          0.76700000       0.33270000       0.16010000
    73  C          0.72588900       0.31932000       0.73748000
    74  C          0.27411100       0.81932000       0.76252000
    75  C          0.27411100       0.68068000       0.26252000
    76  C          0.72588900       0.18068000       0.23748000
    77  H          0.75120000       0.37600000       0.69220000
    78  H          0.24880000       0.87600000       0.80780000
    79  H          0.24880000       0.62400000       0.30780000
    80  H          0.75120000       0.12400000       0.19220000
    81  C          0.67934800       0.36007170       0.82278000
    82  C          0.32065200       0.86007170       0.67722000
    83  C          0.32065200       0.63992830       0.17722000
    84  C          0.67934800       0.13992830       0.32278000
    85  H          0.67340000       0.44450000       0.83580000
    86  H          0.32660000       0.94450000       0.66420000
    87  H          0.32660000       0.55550000       0.16420000
    88  H          0.67340000       0.05550000       0.33580000
    89  N          0.55324600       0.24542130       0.03668150
    90  N          0.44675400       0.74542130       0.46331850
    91  N          0.44675400       0.75457870       0.96331850
    92  N          0.55324600       0.25457870       0.53668150
    93  O          0.61451600       0.06526100       0.93671850
    94  O          0.38548400       0.56526100       0.56328150
    95  O          0.38548400       0.93473900       0.06328150
    96  O          0.61451600       0.43473900       0.43671850
    97  H          0.58850000       0.10120000       0.98420000
    98  H          0.41150000       0.60120000       0.51580000
    99  H          0.41150000       0.89880000       0.01580000
   100  H          0.58850000       0.39880000       0.48420000
   101  O          0.35594600       0.36379110       0.38679140
   102  O          0.64405400       0.86379110       0.11320860
   103  O          0.64405400       0.63620890       0.61320860
   104  O          0.35594600       0.13620890       0.88679140
   105  H          0.36178000       0.43261400       0.43720000
   106  H          0.63822000       0.93261400       0.06280000
   107  H          0.63822000       0.56738600       0.56280000
   108  H          0.36178000       0.06738600       0.93720000
   109  C          0.12039900       0.11268170       0.31452000
   110  C          0.87960100       0.61268170       0.18548000
   111  C          0.87960100       0.88731830       0.68548000
   112  C          0.12039900       0.38731830       0.81452000
   113  C          0.13952900       0.04671170       0.43942000
   114  C          0.86047100       0.54671170       0.06058000
   115  C          0.86047100       0.95328830       0.56058000
   116  C          0.13952900       0.45328830       0.93942000
   117  H          0.11310000      -0.00900000       0.48290000
   118  H          0.88690000       0.49100000       0.01710000
   119  H          0.88690000       0.00900000       0.51710000
   120  H          0.11310000       0.50900000       0.98290000
   121  C          0.19705900       0.06197170       0.50062000
   122  C          0.80294100       0.56197170      -0.00062000
   123  C          0.80294100       0.93802830       0.49938000
   124  C          0.19705900       0.43802830       0.00062000
   125  H          0.20910000       0.01680000       0.58490000
   126  H          0.79090000       0.51680000       0.91510000
   127  H          0.79090000       0.98320000       0.41510000
   128  H          0.20910000       0.48320000       0.08490000
   129  C          0.23656800       0.14364160       0.43752000
   130  C          0.76343200       0.64364160       0.06248000
   131  C          0.76343200       0.85635840       0.56248000
   132  C          0.23656800       0.35635840       0.93752000
   133  C          0.21866900       0.20758180       0.31182000
   134  C          0.78133100       0.70758180       0.18818000
   135  C          0.78133100       0.79241820       0.68818000
   136  C          0.21866900       0.29241820       0.81182000
   137  H          0.24560000       0.26180000       0.26740000
   138  H          0.75440000       0.76180000       0.23260000
   139  H          0.75440000       0.73820000       0.73260000
   140  H          0.24560000       0.23820000       0.76740000
   141  C          0.16131900       0.19264190       0.25032000
   142  C          0.83868100       0.69264190       0.24968000
   143  C          0.83868100       0.80735810       0.74968000
   144  C          0.16131900       0.30735810       0.75032000
   145  H          0.14980000       0.23670000       0.16470000
   146  H          0.85020000       0.73670000       0.33530000
   147  H          0.85020000       0.76330000       0.83530000
   148  H          0.14980000       0.26330000       0.66470000
   149  C          0.03509900       0.15875180       0.15872000
   150  C          0.96490100       0.65875180       0.34128000
   151  C          0.96490100       0.84124820       0.84128000
   152  C          0.03509900       0.34124820       0.65872000
   153  H          0.05710000       0.22360000       0.11850000
   154  H          0.94290000       0.72360000       0.38150000
   155  H          0.94290000       0.77640000       0.88150000
   156  H          0.05710000       0.27640000       0.61850000
   157  C          0.97395100       0.13692170       0.10372000
   158  C          0.02604900       0.63692170       0.39628000
   159  C          0.02604900       0.86307830       0.89628000
   160  C          0.97395100       0.36307830       0.60372000
   161  C          0.93904100       0.04030190       0.15802000
   162  C          0.06095900       0.54030190       0.34198000
   163  C          0.06095900       0.95969810       0.84198000
   164  C          0.93904100       0.45969810       0.65802000
   165  C          0.88058900       0.02082000       0.10103000
   166  C          0.11941100       0.52082000       0.39897000
   167  C          0.11941100       0.97918000       0.89897000
   168  C          0.88058900       0.47918000       0.60103000
   169  H          0.85740000       0.95580000       0.13680000
   170  H          0.14260000       0.45580000       0.36320000
   171  H          0.14260000       0.04420000       0.86320000
   172  H          0.85740000       0.54420000       0.63680000
   173  C          0.85709900       0.09742000      -0.00803000
   174  C          0.14290100       0.59742000       0.50803000
   175  C          0.14290100       0.90258000       0.00803000
   176  C          0.85709900       0.40258000       0.49197000
   177  H          0.81780000       0.08430000       0.95470000
   178  H          0.18220000       0.58430000       0.54530000
   179  H          0.18220000       0.91570000       0.04530000
   180  H          0.81780000       0.41570000       0.45470000
   181  C          0.89066890       0.19342000       0.93697000
   182  C          0.10933110       0.69342000       0.56303000
   183  C          0.10933110       0.80658000       0.06303000
   184  C          0.89066890       0.30658000       0.43697000
   185  H          0.87440000       0.24470000       0.86260000
   186  H          0.12560000       0.74470000       0.63740000
   187  H          0.12560000       0.75530000       0.13740000
   188  H          0.87440000       0.25530000       0.36260000
   189  C          0.94827900       0.21242000      -0.00703000
   190  C          0.05172100       0.71242000       0.50703000
   191  C          0.05172100       0.78758000       0.00703000
   192  C          0.94827900       0.28758000       0.49297000
   193  H          0.97090000       0.27770000       0.95600000
   194  H          0.02910000       0.77770000       0.54400000
   195  H          0.02910000       0.72230000       0.04400000
   196  H          0.97090000       0.22230000       0.45600000
   197  N          0.06008700       0.09177150       0.26097180
   198  N          0.93991300       0.59177150       0.23902820
   199  N          0.93991300       0.90822850       0.73902820
   200  N          0.06008700       0.40822850       0.76097180
   201  O          0.96115400       0.96253860       0.26524170
   202  O          0.03884600       0.46253860       0.23475830
   203  O          0.03884600       0.03746140       0.73475830
   204  O          0.96115400       0.53746140       0.76524170
   205  H         -0.00410000       0.98310000       0.28950000
   206  H          0.00410000       0.48310000       0.21050000
   207  H          0.00410000       0.01690000       0.71050000
   208  H         -0.00410000       0.51690000       0.78950000
   209  O          0.29319600       0.15613130       0.50410160
   210  O          0.70680400       0.65613130      -0.00410160
   211  O          0.70680400       0.84386870       0.49589840
   212  O          0.29319600       0.34386870       0.00410160
   213  H          0.31059000       0.21871600       0.46720000
   214  H          0.68941000       0.71871600       0.03280000
   215  H          0.68941000       0.78128400       0.53280000
   216  H          0.31059000       0.28128400       0.96720000
