data_EWEVIM01
_symmetry_space_group_name_H-M    'P1'
_symmetry_Int_Tables_number       1
loop_
_symmetry_equiv_pos_site_id
_symmetry_equiv_pos_as_xyz
1 x,y,z
_cell_length_a                   4.0394
_cell_length_b                   27.232
_cell_length_c                   7.2847
_cell_angle_alpha                90.0
_cell_angle_beta                 112.78315
_cell_angle_gamma                90.0
loop_
_atom_site_label
_atom_site_type_symbol
_atom_site_fract_x
_atom_site_fract_y
_atom_site_fract_z
     1  O          0.08936000       0.00439600       0.27723000
     2  O          0.91064000       0.50439600       0.22277000
     3  O          0.91064000      -0.00439600       0.72277000
     4  O          0.08936000       0.49560400       0.77723000
     5  H          0.26330000       0.98550000       0.34680000
     6  H          0.73670000       0.48550000       0.15320000
     7  H          0.73670000       0.01450000       0.65320000
     8  H          0.26330000       0.51450000       0.84680000
     9  O          0.49626000       0.05873700       0.46983000
    10  O          0.50374000       0.55873700       0.03017000
    11  O          0.50374000       0.94126300       0.53017000
    12  O          0.49626000       0.44126300       0.96983000
    13  O          0.53867000       0.23677700       0.82867000
    14  O          0.46133000       0.73677700       0.67133000
    15  O          0.46133000       0.76322300       0.17133000
    16  O          0.53867000       0.26322300       0.32867000
    17  O          0.09046000       0.18326800       0.68467000
    18  O          0.90954000       0.68326800       0.81533000
    19  O          0.90954000       0.81673200       0.31533000
    20  O          0.09046000       0.31673200       0.18467000
    21  N          0.39477000       0.15426800       0.38483000
    22  N          0.60523000       0.65426800       0.11517000
    23  N          0.60523000       0.84573200       0.61517000
    24  N          0.39477000       0.34573200       0.88483000
    25  H          0.46600000       0.18550000       0.38700000
    26  H          0.53400000       0.68550000       0.11300000
    27  H          0.53400000       0.81450000       0.61300000
    28  H          0.46600000       0.31450000       0.88700000
    29  H          0.53130000       0.13320000       0.47000000
    30  H          0.46870000       0.63320000       0.03000000
    31  H          0.46870000       0.86680000       0.53000000
    32  H          0.53130000       0.36680000       0.97000000
    33  N          0.40017000       0.19490800       0.80787000
    34  N          0.59983000       0.69490800       0.69213000
    35  N          0.59983000       0.80509200       0.19213000
    36  N          0.40017000       0.30509200       0.30787000
    37  C          0.01668000       0.08749900       0.19114000
    38  C         -0.01668000       0.58749900       0.30886000
    39  C         -0.01668000       0.91250100       0.80886000
    40  C          0.01668000       0.41250100       0.69114000
    41  C          0.11489000       0.13804900       0.23084000
    42  C          0.88511000       0.63804900       0.26916000
    43  C          0.88511000       0.86195100       0.76916000
    44  C          0.11489000       0.36195100       0.73084000
    45  C          0.90288000       0.17288900       0.09694000
    46  C          0.09712000       0.67288900       0.40306000
    47  C          0.09712000       0.82711100       0.90306000
    48  C          0.90288000       0.32711100       0.59694000
    49  H         -0.04180000       0.20690000       0.11630000
    50  H          0.04180000       0.70690000       0.38370000
    51  H          0.04180000       0.79310000       0.88370000
    52  H         -0.04180000       0.29310000       0.61630000
    53  C          0.61878000       0.15712900       0.93996000
    54  C          0.38122000       0.65712900       0.56004000
    55  C          0.38122000       0.84287100       0.06004000
    56  C          0.61878000       0.34287100       0.43996000
    57  C          0.52238000       0.10785900       0.89516000
    58  C          0.47762000       0.60785900       0.60484000
    59  C          0.47762000       0.89214100       0.10484000
    60  C          0.52238000       0.39214100       0.39516000
    61  H          0.32290000       0.09870000       0.77860000
    62  H          0.67710000       0.59870000       0.72140000
    63  H          0.67710000       0.90130000       0.22140000
    64  H          0.32290000       0.40130000       0.27860000
    65  C          0.72539000       0.07389100       0.02524000
    66  C          0.27461000       0.57389100       0.47476000
    67  C          0.27461000       0.92610900       0.97476000
    68  C          0.72539000       0.42610900       0.52524000
    69  H          0.66560000       0.04010000       0.00130000
    70  H          0.33440000       0.54010000       0.49870000
    71  H          0.33440000       0.95990000      -0.00130000
    72  H          0.66560000       0.45990000       0.50130000
    73  C          0.22338000       0.04991900       0.32594000
    74  C          0.77662000       0.54991900       0.17406000
    75  C          0.77662000       0.95008100       0.67406000
    76  C          0.22338000       0.45008100       0.82594000
