data_EWEVIM02
_symmetry_space_group_name_H-M    'P1'
_symmetry_Int_Tables_number       1
loop_
_symmetry_equiv_pos_site_id
_symmetry_equiv_pos_as_xyz
1 x,y,z
_cell_length_a                   3.710501
_cell_length_b                   25.30928
_cell_length_c                   24.355517
_cell_angle_alpha                90.0
_cell_angle_beta                 93.4597
_cell_angle_gamma                90.0
loop_
_atom_site_label
_atom_site_type_symbol
_atom_site_fract_x
_atom_site_fract_y
_atom_site_fract_z
     1  O          0.43913000       0.26307400       0.01156400
     2  O          0.56087000       0.76307400       0.48843600
     3  O          0.56087000       0.73692600       0.98843600
     4  O          0.43913000       0.23692600       0.51156400
     5  H          0.35250000       0.28964000       0.99314000
     6  H          0.64750000       0.78964000       0.50686000
     7  H          0.64750000       0.71036000       0.00686000
     8  H          0.35250000       0.21036000       0.49314000
     9  O          0.63163000       0.32875400       0.06680400
    10  O          0.36837000       0.82875400       0.43319600
    11  O          0.36837000       0.67124600       0.93319600
    12  O          0.63163000       0.17124600       0.56680400
    13  C          0.03994000       0.21176600       0.18183500
    14  C          0.96006000       0.71176600       0.31816500
    15  C          0.96006000       0.78823400       0.81816500
    16  C          0.03994000       0.28823400       0.68183500
    17  H          0.15230000       0.21910000       0.21660000
    18  H          0.84770000       0.71910000       0.28340000
    19  H          0.84770000       0.78090000       0.78340000
    20  H          0.15230000       0.28090000       0.71660000
    21  O          0.32844000       0.13114500       0.24225500
    22  O          0.67156000       0.63114500       0.25774500
    23  O          0.67156000       0.86885500       0.75774500
    24  O          0.32844000       0.36885500       0.74225500
    25  C          0.74224000       0.23983600       0.09546500
    26  C          0.25776000       0.73983600       0.40453500
    27  C          0.25776000       0.76016400       0.90453500
    28  C          0.74224000       0.26016400       0.59546500
    29  C          0.71194000       0.18675600       0.07992600
    30  C          0.28806000       0.68675600       0.42007400
    31  C          0.28806000       0.81324400       0.92007400
    32  C          0.71194000       0.31324400       0.57992600
    33  H          0.60080000       0.17840000       0.04530000
    34  H          0.39920000       0.67840000       0.45470000
    35  H          0.39920000       0.82160000       0.95470000
    36  H          0.60080000       0.32160000       0.54530000
    37  N          0.95124000       0.30313500       0.16581600
    38  N          0.04876000       0.80313500       0.33418400
    39  N          0.04876000       0.69686500       0.83418400
    40  N          0.95124000       0.19686500       0.66581600
    41  H          0.07950000       0.30857000       0.19746000
    42  H          0.92050000       0.80857000       0.30254000
    43  H          0.92050000       0.69143000       0.80254000
    44  H          0.07950000       0.19143000       0.69746000
    45  H          0.86650000       0.32946000       0.14367000
    46  H          0.13350000       0.82946000       0.35633000
    47  H          0.13350000       0.67054000       0.85633000
    48  H          0.86650000       0.17054000       0.64367000
    49  C          0.60204000       0.28117600       0.05738500
    50  C          0.39796000       0.78117600       0.44261500
    51  C          0.39796000       0.71882400       0.94261500
    52  C          0.60204000       0.21882400       0.55738500
    53  C          0.91024000       0.25343500       0.14760500
    54  C          0.08976000       0.75343500       0.35239500
    55  C          0.08976000       0.74656500       0.85239500
    56  C          0.91024000       0.24656500       0.64760500
    57  N          0.14544000       0.11885500       0.20133500
    58  N          0.85456000       0.61885500       0.29866500
    59  N          0.85456000       0.88114500       0.79866500
    60  N          0.14544000       0.38114500       0.70133500
    61  C          0.00154000       0.16084600       0.16414600
    62  C         -0.00154000       0.66084600       0.33585400
    63  C         -0.00154000       0.83915400       0.83585400
    64  C          0.00154000       0.33915400       0.66414600
    65  C          0.83894000       0.14644600       0.11345600
    66  C          0.16106000       0.64644600       0.38654400
    67  C          0.16106000       0.85355400       0.88654400
    68  C          0.83894000       0.35355400       0.61345600
    69  H          0.81690000       0.11090000       0.10270000
    70  H          0.18310000       0.61090000       0.39730000
    71  H          0.18310000       0.88910000       0.89730000
    72  H          0.81690000       0.38910000       0.60270000
    73  O          0.07046000       0.07346500       0.18993600
    74  O          0.92954000       0.57346500       0.31006400
    75  O          0.92954000       0.92653500       0.81006400
    76  O          0.07046000       0.42653500       0.68993600
    77  O          0.15733000       0.15977400       0.45032400
    78  O          0.84267000       0.65977400       0.04967600
    79  O          0.84267000       0.84022600       0.54967600
    80  O          0.15733000       0.34022600       0.95032400
    81  O          0.38683000       0.09354400       0.50180400
    82  O          0.61317000       0.59354400      -0.00180400
    83  O          0.61317000       0.90645600       0.49819600
    84  O          0.38683000       0.40645600       0.00180400
    85  H          0.45350000       0.12004000       0.52206000
    86  H          0.54650000       0.62004000       0.97794000
    87  H          0.54650000       0.87996000       0.47794000
    88  H          0.45350000       0.37996000       0.02206000
    89  O          0.51026000       0.96599500       0.26712500
    90  O          0.48974000       0.46599500       0.23287500
    91  O          0.48974000       0.03400500       0.73287500
    92  O          0.51026000       0.53400500       0.76712500
    93  C          0.77266000       0.04544600       0.33117500
    94  C          0.22734000       0.54544600       0.16882500
    95  C          0.22734000       0.95455400       0.66882500
    96  C          0.77266000       0.45455400       0.83117500
    97  H          0.65110000       0.05360000       0.29720000
    98  H          0.34890000       0.55360000       0.20280000
    99  H          0.34890000       0.94640000       0.70280000
   100  H          0.65110000       0.44640000       0.79720000
   101  C          0.13294000       0.01801600       0.43024600
   102  C          0.86706000       0.51801600       0.06975400
   103  C          0.86706000       0.98198400       0.56975400
   104  C          0.13294000       0.48198400       0.93024600
   105  H          0.25520000       0.00890000       0.46380000
   106  H          0.74480000       0.50890000       0.03620000
   107  H          0.74480000       0.99110000       0.53620000
   108  H          0.25520000       0.49110000       0.96380000
   109  N          0.82376000       0.13646500       0.35231600
   110  N          0.17624000       0.63646500       0.14768400
   111  N          0.17624000       0.86353500       0.64768400
   112  N          0.82376000       0.36353500       0.85231600
   113  H          0.68250000       0.14087000       0.32336000
   114  H          0.31750000       0.64087000       0.17664000
   115  H          0.31750000       0.85913000       0.67664000
   116  H          0.68250000       0.35913000       0.82336000
   117  H          0.89050000       0.16216000       0.37517000
   118  H          0.10950000       0.66216000       0.12483000
   119  H          0.10950000       0.83784000       0.62483000
   120  H          0.89050000       0.33784000       0.87517000
   121  N          0.69686000       0.95288500       0.30730500
   122  N          0.30314000       0.45288500       0.19269500
   123  N          0.30314000       0.04711500       0.69269500
   124  N          0.69686000       0.54711500       0.80730500
   125  C          0.07744000       0.07155600       0.41777500
   126  C          0.92256000       0.57155600       0.08222500
   127  C          0.92256000       0.92844400       0.58222500
   128  C          0.07744000       0.42844400       0.91777500
   129  C          0.83496000       0.99406400       0.34587500
   130  C          0.16504000       0.49406400       0.15412500
   131  C          0.16504000       0.00593600       0.65412500
   132  C          0.83496000       0.50593600       0.84587500
   133  C          0.01504000       0.97848400       0.39507600
   134  C         -0.01504000       0.47848400       0.10492400
   135  C         -0.01504000       0.02151600       0.60492400
   136  C          0.01504000       0.52151600       0.89507600
   137  H          0.05360000       0.94270000       0.40370000
   138  H          0.94640000       0.44270000       0.09630000
   139  H          0.94640000       0.05730000       0.59630000
   140  H          0.05360000       0.55730000       0.90370000
   141  C          0.20844000       0.11210600       0.45739500
   142  C          0.79156000       0.61210600       0.04260500
   143  C          0.79156000       0.88789400       0.54260500
   144  C          0.20844000       0.38789400       0.95739500
   145  C          0.89206000       0.08625600       0.36728500
   146  C          0.10794000       0.58625600       0.13271500
   147  C          0.10794000       0.91374400       0.63271500
   148  C          0.89206000       0.41374400       0.86728500
   149  O          0.76954000       0.90755500       0.31746700
   150  O          0.23046000       0.40755500       0.18253300
   151  O          0.23046000       0.09244500       0.68253300
   152  O          0.76954000       0.59244500       0.81746700
   153  O          0.29003000       0.49212400       0.44052400
   154  O          0.70997000       0.99212400       0.05947600
   155  O          0.70997000       0.50787600       0.55947600
   156  O          0.29003000       0.00787600       0.94052400
   157  O          0.35663000       0.43022400       0.50540400
   158  O          0.64337000       0.93022400      -0.00540400
   159  O          0.64337000       0.56977600       0.49459600
   160  O          0.35663000       0.06977600       0.00540400
   161  H          0.46250000       0.45644000       0.52216000
   162  H          0.53750000       0.95644000       0.97784000
   163  H          0.53750000       0.54356000       0.47784000
   164  H          0.46250000       0.04356000       0.02216000
   165  O          0.44816000       0.29646500       0.27714500
   166  O          0.55184000       0.79646500       0.22285500
   167  O          0.55184000       0.70353500       0.72285500
   168  O          0.44816000       0.20353500       0.77714500
   169  N          0.55976000       0.28566500       0.32343600
   170  N          0.44024000       0.78566500       0.17656400
   171  N          0.44024000       0.71433500       0.67656400
   172  N          0.55976000       0.21433500       0.82343600
   173  C          0.86486000       0.31450600       0.41081600
   174  C          0.13514000       0.81450600       0.08918400
   175  C          0.13514000       0.68549400       0.58918400
   176  C          0.86486000       0.18549400       0.91081600
   177  H          0.84040000       0.28030000       0.42510000
   178  H          0.15960000       0.78030000       0.07490000
   179  H          0.15960000       0.71970000       0.57490000
   180  H          0.84040000       0.21970000       0.92510000
   181  N         -0.03794000       0.46509500       0.34298600
   182  N          0.03794000       0.96509500       0.15701400
   183  N          0.03794000       0.53490500       0.65701400
   184  N         -0.03794000       0.03490500       0.84298600
   185  H          0.86750000       0.47017000       0.31066000
   186  H          0.13250000       0.97017000       0.18934000
   187  H          0.13250000       0.52983000       0.68934000
   188  H          0.86750000       0.02983000       0.81066000
   189  H          0.05950000       0.49096000       0.36407000
   190  H          0.94050000       0.99096000       0.13593000
   191  H          0.94050000       0.50904000       0.63593000
   192  H          0.05950000       0.00904000       0.86407000
   193  C          0.24474000       0.44643600       0.45566500
   194  C          0.75526000       0.94643600       0.04433500
   195  C          0.75526000       0.55356400       0.54433500
   196  C          0.24474000       0.05356400       0.95566500
   197  C          0.02744000       0.35446600       0.44159600
   198  C         -0.02744000       0.85446600       0.05840400
   199  C         -0.02744000       0.64553400       0.55840400
   200  C          0.02744000       0.14553400       0.94159600
   201  H          0.11550000       0.34720000       0.47780000
   202  H          0.88450000       0.84720000       0.02220000
   203  H          0.88450000       0.65280000       0.52220000
   204  H          0.11550000       0.15280000       0.97780000
   205  C          0.06604000       0.40555500       0.42086500
   206  C          0.93396000       0.90555500       0.07913500
   207  C          0.93396000       0.59444500       0.57913500
   208  C          0.06604000       0.09444500       0.92086500
   209  C          0.73906000       0.32728600       0.35769600
   210  C          0.26094000       0.82728600       0.14230400
   211  C          0.26094000       0.67271400       0.64230400
   212  C          0.73906000       0.17271400       0.85769600
   213  C          0.93396000       0.41738600       0.36618500
   214  C          0.06604000       0.91738600       0.13381500
   215  C          0.06604000       0.58261400       0.63381500
   216  C          0.93396000       0.08261400       0.86618500
   217  C          0.76696000       0.37611600       0.33498600
   218  C          0.23304000       0.87611600       0.16501400
   219  C          0.23304000       0.62388400       0.66501400
   220  C          0.76696000       0.12388400       0.83498600
   221  H          0.67570000       0.38240000       0.29870000
   222  H          0.32430000       0.88240000       0.20130000
   223  H          0.32430000       0.61760000       0.70130000
   224  H          0.67570000       0.11760000       0.79870000
   225  O          0.51645000       0.24253500       0.34401700
   226  O          0.48355000       0.74253500       0.15598300
   227  O          0.48355000       0.75746500       0.65598300
   228  O          0.51645000       0.25746500       0.84401700
