data_EWEVIM
_symmetry_space_group_name_H-M    'P1'
_symmetry_Int_Tables_number       1
loop_
_symmetry_equiv_pos_site_id
_symmetry_equiv_pos_as_xyz
1 x,y,z
_cell_length_a                   3.62911
_cell_length_b                   7.73393
_cell_length_c                   26.56061
_cell_angle_alpha                90.0
_cell_angle_beta                 93.5692
_cell_angle_gamma                90.0
loop_
_atom_site_label
_atom_site_type_symbol
_atom_site_fract_x
_atom_site_fract_y
_atom_site_fract_z
     1  O          0.81963000       0.22118150       0.00419400
     2  O          0.68037000       0.72118150       0.49580600
     3  O          0.18037000       0.77881850      -0.00419400
     4  O          0.31963000       0.27881850       0.50419400
     5  H          0.84350000       0.13720000       0.98403000
     6  H          0.65650000       0.63720000       0.51597000
     7  H          0.15650000       0.86280000       0.01597000
     8  H          0.34350000       0.36280000       0.48403000
     9  O          0.09793000       0.03779140       0.05961400
    10  O          0.40207000       0.53779140       0.44038600
    11  O          0.90207000       0.96220860       0.94038600
    12  O          0.59793000       0.46220860       0.55961400
    13  O          0.58103000       0.83296150       0.18297500
    14  O          0.91897000       0.33296150       0.31702500
    15  O          0.41897000       0.16703850       0.81702500
    16  O          0.08103000       0.66703850       0.68297500
    17  O          0.92564000       0.69320160       0.23790400
    18  O          0.57436000       0.19320160       0.26209600
    19  O          0.07436000       0.30679840       0.76209600
    20  O          0.42564000       0.80679840       0.73790400
    21  N          0.18124000       0.13591170       0.15675500
    22  N          0.31876000       0.63591170       0.34324500
    23  N          0.81876000       0.86408830       0.84324500
    24  N          0.68124000       0.36408830       0.65675500
    25  H          0.22150000       0.05231800       0.13536000
    26  H          0.27850000       0.55231800       0.36464000
    27  H          0.77850000       0.94768200       0.86464000
    28  H          0.72150000       0.44768200       0.63536000
    29  H          0.25950000       0.13120000       0.18894000
    30  H          0.24050000       0.63120000       0.31106000
    31  H          0.74050000       0.86880000       0.81106000
    32  H          0.75950000       0.36880000       0.68894000
    33  N          0.77913000       0.71053160       0.19538500
    34  N          0.72087000       0.21053160       0.30461500
    35  N          0.22087000       0.28946840       0.80461500
    36  N          0.27913000       0.78946840       0.69538500
    37  C          0.95534000       0.18042000       0.05008500
    38  C          0.54466000       0.68042000       0.44991500
    39  C          0.04466000       0.81958000       0.94991500
    40  C          0.45534000       0.31958000       0.55008500
    41  C          0.92264000       0.31719190       0.08792500
    42  C          0.57736000       0.81719190       0.41207500
    43  C          0.07736000       0.68280810       0.91207500
    44  C          0.42264000       0.18280810       0.58792500
    45  C          0.03584000       0.28639180       0.13947500
    46  C          0.46416000       0.78639180       0.36052500
    47  C         -0.03584000       0.71360820       0.86052500
    48  C          0.53584000       0.21360820       0.63947500
    49  C         -0.01236000       0.42225180       0.17415500
    50  C          0.51236000       0.92225180       0.32584500
    51  C          0.01236000       0.57774820       0.82584500
    52  C          0.48764000       0.07774820       0.67415500
    53  H          0.05830000       0.40690000       0.20890000
    54  H          0.44170000       0.90690000       0.29110000
    55  H          0.94170000       0.59310000       0.79110000
    56  H          0.55830000       0.09310000       0.70890000
    57  C          0.83874000       0.57586180       0.15735500
    58  C          0.66126000       0.07586180       0.34264500
    59  C          0.16126000       0.42413820       0.84264500
    60  C          0.33874000       0.92413820       0.65735500
    61  C          0.73364000       0.61131190       0.10700600
    62  C          0.76636000       0.11131190       0.39299400
    63  C          0.26636000       0.38868810       0.89299400
    64  C          0.23364000       0.88868810       0.60700600
    65  H          0.63570000       0.72050000       0.09660000
    66  H          0.86430000       0.22050000       0.40340000
    67  H          0.36430000       0.27950000       0.90340000
    68  H          0.13570000       0.77950000       0.59660000
    69  C          0.77974000       0.47912000       0.07306600
    70  C          0.72026000       0.97912000       0.42693400
    71  C          0.22026000       0.52088000       0.92693400
    72  C          0.27974000       0.02088000       0.57306600
    73  H          0.71220000       0.49840000       0.03840000
    74  H          0.78780000      -0.00160000       0.46160000
    75  H          0.28780000       0.50160000       0.96160000
    76  H          0.21220000       0.00160000       0.53840000
