data_EWUVEY
_symmetry_space_group_name_H-M    'P1'
_symmetry_Int_Tables_number       1
loop_
_symmetry_equiv_pos_site_id
_symmetry_equiv_pos_as_xyz
1 x,y,z
_cell_length_a                   5.6011
_cell_length_b                   12.1783
_cell_length_c                   8.0902
_cell_angle_alpha                90.0
_cell_angle_beta                 105.642
_cell_angle_gamma                90.0
loop_
_atom_site_label
_atom_site_type_symbol
_atom_site_fract_x
_atom_site_fract_y
_atom_site_fract_z
     1  N          0.20582000       0.11336900       0.01486160
     2  N          0.79418000       0.61336900       0.48513840
     3  N          0.79418000       0.88663100      -0.01486160
     4  N          0.20582000       0.38663100       0.51486160
     5  H          0.05040000       0.09391300       0.94480000
     6  H          0.94960000       0.59391300       0.55520000
     7  H          0.94960000       0.90608700       0.05520000
     8  H          0.05040000       0.40608700       0.44480000
     9  C          0.34473000       0.04195110       0.13803180
    10  C          0.65527000       0.54195110       0.36196820
    11  C          0.65527000       0.95804890       0.86196820
    12  C          0.34473000       0.45804890       0.63803180
    13  O          0.27314180       0.95159200       0.17219140
    14  O          0.72685820       0.45159200       0.32780860
    15  O          0.72685820       0.04840800       0.82780860
    16  O          0.27314180       0.54840800       0.67219140
    17  N          0.56452000       0.08841100       0.20640160
    18  N          0.43548000       0.58841100       0.29359840
    19  N          0.43548000       0.91158900       0.79359840
    20  N          0.56452000       0.41158900       0.70640160
    21  C          0.74564000       0.04489170       0.35412000
    22  C          0.25436000       0.54489170       0.14588000
    23  C          0.25436000       0.95510830       0.64588000
    24  C          0.74564000       0.45510830       0.85412000
    25  H          0.89550000       0.05520000       0.33640000
    26  H          0.10450000       0.55520000       0.16360000
    27  H          0.10450000       0.94480000       0.66360000
    28  H          0.89550000       0.44480000       0.83640000
    29  H          0.69340000       0.96880000       0.36030000
    30  H          0.30660000       0.46880000       0.13970000
    31  H          0.30660000       0.03120000       0.63970000
    32  H          0.69340000       0.53120000       0.86030000
    33  H          0.72740000       0.07920000       0.45730000
    34  H          0.27260000       0.57920000       0.04270000
    35  H          0.27260000       0.92080000       0.54270000
    36  H          0.72740000       0.42080000       0.95730000
    37  C          0.57623000       0.19767120       0.13792000
    38  C          0.42377000       0.69767120       0.36208000
    39  C          0.42377000       0.80232880       0.86208000
    40  C          0.57623000       0.30232880       0.63792000
    41  H          0.72330000       0.20771200       0.08371800
    42  H          0.27670000       0.70771200       0.41628200
    43  H          0.27670000       0.79228800       0.91628200
    44  H          0.72330000       0.29228800       0.58371800
    45  H          0.59630000       0.25251600       0.22820000
    46  H          0.40370000       0.75251600       0.27180000
    47  H          0.40370000       0.74748400       0.77180000
    48  H          0.59630000       0.24748400       0.72820000
    49  C          0.32953000       0.20841120       0.00685190
    50  C          0.67047000       0.70841120       0.49314810
    51  C          0.67047000       0.79158880      -0.00685190
    52  C          0.32953000       0.29158880       0.50685190
    53  O          0.25432000       0.28513100       0.91181830
    54  O          0.74568000       0.78513100       0.58818170
    55  O          0.74568000       0.71486900       0.08818170
    56  O          0.25432000       0.21486900       0.41181830
