data_EWUVEY01
_symmetry_space_group_name_H-M    'P1'
_symmetry_Int_Tables_number       1
loop_
_symmetry_equiv_pos_site_id
_symmetry_equiv_pos_as_xyz
1 x,y,z
_cell_length_a                   19.02584
_cell_length_b                   3.912101
_cell_length_c                   6.828801
_cell_angle_alpha                90.0
_cell_angle_beta                 90.0
_cell_angle_gamma                90.0
loop_
_atom_site_label
_atom_site_type_symbol
_atom_site_fract_x
_atom_site_fract_y
_atom_site_fract_z
     1  O          0.43641800       0.09904000       0.72092000
     2  O          0.56358200       0.90096000       0.22092000
     3  O          0.06358200       0.59904000       0.22092000
     4  O          0.93641800       0.40096000       0.72092000
     5  O          0.25667700       0.59864000       0.38563000
     6  O          0.74332300       0.40136000       0.88563000
     7  O          0.24332300       0.09864000       0.88563000
     8  O          0.75667700       0.90136000       0.38563000
     9  N          0.33574900       0.33674000       0.59362000
    10  N          0.66425100       0.66326000       0.09362000
    11  N          0.16425100       0.83674000       0.09362000
    12  N          0.83574900       0.16326000       0.59362000
    13  H          0.30611300       0.27160000       0.67040000
    14  H          0.69388700       0.72840000       0.17040000
    15  H          0.19388700       0.77160000       0.17040000
    16  H          0.80611300       0.22840000       0.67040000
    17  N          0.37475800       0.55495000       0.31712000
    18  N          0.62524200       0.44505000       0.81712000
    19  N          0.12524200       0.05495000       0.81712000
    20  N          0.87475800       0.94505000       0.31712000
    21  C          0.31629100       0.50855000       0.42323000
    22  C          0.68370900       0.49145000       0.92323000
    23  C          0.18370900       0.00855000       0.92323000
    24  C          0.81629100      -0.00855000       0.42323000
    25  C          0.40507900       0.25735000       0.59573000
    26  C          0.59492100       0.74265000       0.09573000
    27  C          0.09492100       0.75735000       0.09573000
    28  C          0.90507900       0.24265000       0.59573000
    29  C          0.43550100       0.40615000       0.41063000
    30  C          0.56449900       0.59385000       0.91063000
    31  C          0.06449900       0.90615000       0.91063000
    32  C          0.93550100       0.09385000       0.41063000
    33  H          0.47064900       0.57849100       0.43959700
    34  H          0.52935100       0.42150900       0.93959700
    35  H          0.02935100       0.07849100       0.93959700
    36  H          0.97064900       0.92150900       0.43959700
    37  H          0.45641100       0.22990300       0.32943000
    38  H          0.54358900       0.77009700       0.82943000
    39  H          0.04358900       0.72990300       0.82943000
    40  H          0.95641100       0.27009700       0.32943000
    41  C          0.37460120       0.67996000       0.11703000
    42  C          0.62539880       0.32004000       0.61703000
    43  C          0.12539880       0.17996000       0.61703000
    44  C          0.87460120       0.82004000       0.11703000
    45  H          0.37600300       0.48970300       0.02820700
    46  H          0.62399700       0.51029700       0.52820700
    47  H          0.12399700      -0.01029700       0.52820700
    48  H          0.87600300       0.01029700       0.02820700
    49  H          0.41503900       0.82209600       0.09612400
    50  H          0.58496100       0.17790400       0.59612400
    51  H          0.08496100       0.32209600       0.59612400
    52  H          0.91503900       0.67790400       0.09612400
    53  H          0.33267900       0.81050600       0.09420200
    54  H          0.66732100       0.18949400       0.59420200
    55  H          0.16732100       0.31050600       0.59420200
    56  H          0.83267900       0.68949400       0.09420200
