data_EWUVEY02
_symmetry_space_group_name_H-M    'P1'
_symmetry_Int_Tables_number       1
loop_
_symmetry_equiv_pos_site_id
_symmetry_equiv_pos_as_xyz
1 x,y,z
_cell_length_a                   7.84662
_cell_length_b                   9.82573
_cell_length_c                   20.31077
_cell_angle_alpha                90.0
_cell_angle_beta                 90.0
_cell_angle_gamma                90.0
loop_
_atom_site_label
_atom_site_type_symbol
_atom_site_fract_x
_atom_site_fract_y
_atom_site_fract_z
     1  N          0.55942000       0.49872000       0.48573110
     2  N          0.94058000       0.50128000       0.98573110
     3  N          0.44058000      -0.00128000       0.01426890
     4  N          0.05942000       0.00128000       0.51426890
     5  N          0.29892000       0.41612000       0.48715100
     6  N          0.20108000       0.58388000       0.98715100
     7  N          0.70108000       0.91612000       0.01284900
     8  N          0.79892000       0.08388000       0.51284900
     9  H          0.22830000       0.35830000       0.49161200
    10  H          0.27170000       0.64170000       0.99161200
    11  H          0.77170000       0.85830000       0.00838800
    12  H          0.72830000       0.14170000       0.50838800
    13  O          0.52562000       0.26703180       0.49530100
    14  O          0.97438000       0.73296820      -0.00469900
    15  O          0.47438000       0.76703180       0.00469900
    16  O          0.02562000       0.23296820       0.50469900
    17  O          0.13792000       0.60983180       0.47874110
    18  O          0.36208000       0.39016820       0.97874110
    19  O          0.86208000       0.10983180       0.02125890
    20  O          0.63792000       0.89016820       0.52125890
    21  C          0.47113000       0.38282000       0.49033110
    22  C          0.02887000       0.61718000       0.99033110
    23  C          0.52887000       0.88282000       0.00966890
    24  C          0.97113000       0.11718000       0.50966890
    25  C          0.27243000       0.55122000       0.48073130
    26  C          0.22757000       0.44878000       0.98073130
    27  C          0.72757000       0.05122000       0.01926870
    28  C          0.77243000       0.94878000       0.51926870
    29  C          0.44813000       0.61422000       0.47587140
    30  C          0.05187000       0.38578000       0.97587140
    31  C          0.55187000       0.11422000       0.02412860
    32  C          0.94813000       0.88578000       0.52412860
    33  H          0.46624500       0.65526700       0.43301100
    34  H          0.03375500       0.34473300       0.93301100
    35  H          0.53375500       0.15526700       0.06698900
    36  H          0.96624500       0.84473300       0.56698900
    37  H          0.46509900       0.68253600       0.50971400
    38  H          0.03490100       0.31746400       0.00971400
    39  H          0.53490100       0.18253600       0.99028600
    40  H          0.96509900       0.81746400       0.49028600
    41  C          0.74343000       0.50773000       0.48384150
    42  C          0.75657000       0.49227000       0.98384150
    43  C          0.25657000       0.00773000       0.01615850
    44  C          0.24343000      -0.00773000       0.51615850
    45  H          0.79146800       0.41860400       0.48936000
    46  H          0.70853200       0.58139600       0.98936000
    47  H          0.20853200       0.91860400       0.01064000
    48  H          0.29146800       0.08139600       0.51064000
    49  H          0.78213900       0.56599200       0.51869500
    50  H          0.71786100       0.43400800       0.01869500
    51  H          0.21786100       0.06599200       0.98130500
    52  H          0.28213900       0.93400800       0.48130500
    53  H          0.77852700       0.54452200       0.44222500
    54  H          0.72147300       0.45547800       0.94222500
    55  H          0.22147300       0.04452200       0.05777500
    56  H          0.27852700       0.95547800       0.55777500
    57  N          0.93018000       0.73852000       0.33139100
    58  N          0.56982000       0.26148000       0.83139100
    59  N          0.06982000       0.23852000       0.16860900
    60  N          0.43018000       0.76148000       0.66860900
    61  N          0.18302000       0.64396190       0.32064100
    62  N          0.31698000       0.35603810       0.82064100
    63  N          0.81698000       0.14396190       0.17935900
    64  N          0.68302000       0.85603810       0.67935900
    65  H          0.25930000       0.58230000       0.31741200
    66  H          0.24070000       0.41770000       0.81741200
    67  H          0.74070000       0.08230000       0.18258800
    68  H          0.75930000       0.91770000       0.68258800
    69  O          0.94378000       0.50869170       0.31127110
    70  O          0.55622000       0.49130830       0.81127110
    71  O          0.05622000       0.00869170       0.18872890
    72  O          0.44378000      -0.00869170       0.68872890
    73  C          0.21903000       0.77592000       0.33337120
    74  C          0.28097000       0.22408000       0.83337120
    75  C          0.78097000       0.27592000       0.16662880
    76  C          0.71903000       0.72408000       0.66662880
    77  O          0.35922000       0.82506190       0.34004110
    78  O          0.14078000       0.17493810       0.84004110
    79  O          0.64078000       0.32506190       0.15995890
    80  O          0.85922000       0.67493810       0.65995890
    81  C          0.00723000       0.62052000       0.32061110
    82  C          0.49277000       0.37948000       0.82061110
    83  C         -0.00723000       0.12052000       0.17938890
    84  C          0.50723000       0.87948000       0.67938890
    85  C          0.05143000       0.84872000       0.33773130
    86  C          0.44857000       0.15128000       0.83773130
    87  C          0.94857000       0.34872000       0.16226870
    88  C          0.55143000       0.65128000       0.66226870
    89  H          0.03897400       0.89496200       0.37963600
    90  H          0.46102600       0.10503800       0.87963600
    91  H          0.96102600       0.39496200       0.12036400
    92  H          0.53897400       0.60503800       0.62036400
    93  H          0.03860100       0.91419600       0.30234300
    94  H          0.46139900       0.08580400       0.80234300
    95  H          0.96139900       0.41419600       0.19765700
    96  H          0.53860100       0.58580400       0.69765700
    97  C          0.74717000       0.75903000       0.33289140
    98  C          0.75283000       0.24097000       0.83289140
    99  C          0.25283000       0.25903000       0.16710860
   100  C          0.24717000       0.74097000       0.66710860
   101  H          0.71575500       0.82471000       0.30008700
   102  H          0.78424500       0.17529000       0.80008700
   103  H          0.28424500       0.32471000       0.19991300
   104  H          0.21575500       0.67529000       0.69991300
   105  H          0.71406000       0.79154000       0.37558200
   106  H          0.78594000       0.20846000       0.87558200
   107  H          0.28594000       0.29154000       0.12441800
   108  H          0.21406000       0.70846000       0.62441800
   109  H          0.69062300       0.67434300       0.32399700
   110  H          0.80937700       0.32565700       0.82399700
   111  H          0.30937700       0.17434300       0.17600300
   112  H          0.19062300       0.82565700       0.67600300
   113  N          0.42332000       0.23092000       0.33671100
   114  N          0.07668000       0.76908000       0.83671100
   115  N          0.57668000       0.73092000       0.16328900
   116  N          0.92332000       0.26908000       0.66328900
   117  N          0.68242000       0.31467190       0.33074100
   118  N          0.81758000       0.68532810       0.83074100
   119  N          0.31758000       0.81467190       0.16925900
   120  N          0.18242000       0.18532810       0.66925900
   121  H          0.75840000       0.37530000       0.32611200
   122  H          0.74160000       0.62470000       0.82611200
   123  H          0.24160000       0.87530000       0.17388800
   124  H          0.25840000       0.12470000       0.67388800
   125  O          0.45392000       0.45993170       0.31755110
   126  O          0.04608000       0.54006830       0.81755110
   127  O          0.54608000       0.95993170       0.18244890
   128  O          0.95392000       0.04006830       0.68244890
   129  O          0.84662000       0.12548180       0.34908110
   130  O          0.65338000       0.87451820       0.84908110
   131  O          0.15338000       0.62548180       0.15091890
   132  O          0.34662000       0.37451820       0.65091890
   133  C          0.50973000       0.34632000       0.32720120
   134  C         -0.00973000       0.65368000       0.82720120
   135  C          0.49027000       0.84632000       0.17279880
   136  C          0.00973000       0.15368000       0.67279880
   137  C          0.71073000       0.18122000       0.34296120
   138  C          0.78927000       0.81878000       0.84296120
   139  C          0.28927000       0.68122000       0.15703880
   140  C          0.21073000       0.31878000       0.65703880
   141  C          0.53583000       0.11652000       0.34718150
   142  C          0.96417000       0.88348000       0.84718150
   143  C          0.46417000       0.61652000       0.15281850
   144  C          0.03583000       0.38348000       0.65281850
   145  H          0.52071200       0.04782600       0.31335100
   146  H          0.97928800       0.95217400       0.81335100
   147  H          0.47928800       0.54782600       0.18664900
   148  H          0.02071200       0.45217400       0.68664900
   149  H          0.51703600       0.07548200       0.39001600
   150  H         -0.01703600       0.92451800       0.89001600
   151  H          0.48296400       0.57548200       0.10998400
   152  H          0.01703600       0.42451800       0.60998400
   153  C          0.23963000       0.21953000       0.34020150
   154  C          0.26037000       0.78047000       0.84020150
   155  C          0.76037000       0.71953000       0.15979850
   156  C          0.73963000       0.28047000       0.65979850
   157  H          0.18908500       0.30679300       0.33190100
   158  H          0.31091500       0.69320700       0.83190100
   159  H          0.81091500       0.80679300       0.16809900
   160  H          0.68908500       0.19320700       0.66809900
   161  H          0.20716600       0.18853500       0.38324100
   162  H          0.29283400       0.81146500       0.88324100
   163  H          0.79283400       0.68853500       0.11675900
   164  H          0.70716600       0.31146500       0.61675900
   165  H          0.20078500       0.15553400       0.30776500
   166  H          0.29921500       0.84446600       0.80776500
   167  H          0.79921500       0.65553400       0.19223500
   168  H          0.70078500       0.34446600       0.69223500
