data_FACZUF01
_symmetry_space_group_name_H-M    'P1'
_symmetry_Int_Tables_number       1
loop_
_symmetry_equiv_pos_site_id
_symmetry_equiv_pos_as_xyz
1 x,y,z
_cell_length_a                   9.151218
_cell_length_b                   16.8743
_cell_length_c                   9.687119
_cell_angle_alpha                90.0
_cell_angle_beta                 96.5826
_cell_angle_gamma                90.0
loop_
_atom_site_label
_atom_site_type_symbol
_atom_site_fract_x
_atom_site_fract_y
_atom_site_fract_z
     1  Br         0.63147400       0.56875200       0.38888400
     2  Br         0.36852600       0.06875200       0.11111600
     3  Br         0.36852600       0.43124800       0.61111600
     4  Br         0.63147400       0.93124800       0.88888400
     5  C          0.90863000       0.53505190       0.29023000
     6  C          0.09137000       0.03505190       0.20977000
     7  C          0.09137000       0.46494810       0.70977000
     8  C          0.90863000       0.96494810       0.79023000
     9  C          0.79584000       0.50422000       0.35893000
    10  C          0.20416000       0.00422000       0.14107000
    11  C          0.20416000       0.49578000       0.64107000
    12  C          0.79584000      -0.00422000       0.85893000
    13  C          0.79504000       0.42642000       0.40484000
    14  C          0.20496000       0.92642000       0.09516000
    15  C          0.20496000       0.57358000       0.59516000
    16  C          0.79504000       0.07358000       0.90484000
    17  H          0.71550000       0.40690000       0.45000000
    18  H          0.28450000       0.90690000       0.05000000
    19  H          0.28450000       0.59310000       0.55000000
    20  H          0.71550000       0.09310000       0.95000000
    21  C          0.91184000       0.37792000       0.38363000
    22  C          0.08816000       0.87792000       0.11637000
    23  C          0.08816000       0.62208000       0.61637000
    24  C          0.91184000       0.12208000       0.88363000
    25  H          0.91250000       0.32420000       0.41330000
    26  H          0.08750000       0.82420000       0.08670000
    27  H          0.08750000       0.67580000       0.58670000
    28  H          0.91250000       0.17580000       0.91330000
    29  C          0.02744000       0.40732000       0.31933000
    30  C          0.97256000       0.90732000       0.18067000
    31  C          0.97256000       0.59268000       0.68067000
    32  C          0.02744000       0.09268000       0.81933000
    33  H          0.10870000       0.37410000       0.30690000
    34  H          0.89130000       0.87410000       0.19310000
    35  H          0.89130000       0.62590000       0.69310000
    36  H          0.10870000       0.12590000       0.80690000
    37  C          0.02544000       0.48442000       0.27313000
    38  C          0.97456000       0.98442000       0.22687000
    39  C          0.97456000       0.51558000       0.72687000
    40  C          0.02544000       0.01558000       0.77313000
    41  H          0.10560000       0.50360000       0.22850000
    42  H          0.89440000       0.00360000       0.27150000
    43  H          0.89440000       0.49640000       0.77150000
    44  H          0.10560000      -0.00360000       0.72850000
    45  C          0.78293000       0.63082190       0.06453000
    46  C          0.21707000       0.13082190       0.43547000
    47  C          0.21707000       0.36917810       0.93547000
    48  C          0.78293000       0.86917810       0.56453000
    49  C          0.71074000       0.56093190       0.01704000
    50  C          0.28926000       0.06093190       0.48296000
    51  C          0.28926000       0.43906810       0.98296000
    52  C          0.71074000       0.93906810       0.51704000
    53  H          0.72270000       0.51410000       0.07150000
    54  H          0.27730000       0.01410000       0.42850000
    55  H          0.27730000       0.48590000       0.92850000
    56  H          0.72270000       0.98590000       0.57150000
    57  C          0.62194000       0.55972000       0.89106000
    58  C          0.37806000       0.05972000       0.60894000
    59  C          0.37806000       0.44028000       0.10894000
    60  C          0.62194000       0.94028000       0.39106000
    61  H          0.57390000       0.51190000       0.86020000
    62  H          0.42610000       0.01190000       0.63980000
    63  H          0.42610000       0.48810000       0.13980000
    64  H          0.57390000       0.98810000       0.36020000
    65  C          0.60214000       0.62722000       0.80966000
    66  C          0.39786000       0.12722000       0.69034000
    67  C          0.39786000       0.37278000       0.19034000
    68  C          0.60214000       0.87278000       0.30966000
    69  H          0.54110000       0.62600000       0.72350000
    70  H          0.45890000       0.12600000       0.77650000
    71  H          0.45890000       0.37400000       0.27650000
    72  H          0.54110000       0.87400000       0.22350000
    73  C          0.67324000       0.69722000       0.85626000
    74  C          0.32676000       0.19722000       0.64374000
    75  C          0.32676000       0.30278000       0.14374000
    76  C          0.67324000       0.80278000       0.35626000
    77  H          0.66130000       0.74380000       0.80130000
    78  H          0.33870000       0.24380000       0.69870000
    79  H          0.33870000       0.25620000       0.19870000
    80  H          0.66130000       0.75620000       0.30130000
    81  C          0.76113000       0.69862000       0.98266000
    82  C          0.23887000       0.19862000       0.51734000
    83  C          0.23887000       0.30138000       0.01734000
    84  C          0.76113000       0.80138000       0.48266000
    85  H          0.80740000       0.74670000       0.01420000
    86  H          0.19260000       0.24670000       0.48580000
    87  H          0.19260000       0.25330000      -0.01420000
    88  H          0.80740000       0.75330000       0.51420000
    89  C          0.08163000       0.65333180       0.17403000
    90  C          0.91837000       0.15333180       0.32597000
    91  C          0.91837000       0.34666820       0.82597000
    92  C          0.08163000       0.84666820       0.67403000
    93  C          0.11784000       0.63533190       0.04084000
    94  C          0.88216000       0.13533190       0.45916000
    95  C          0.88216000       0.36466810       0.95916000
    96  C          0.11784000       0.86466810       0.54084000
    97  H          0.04570000       0.61290000       0.97370000
    98  H          0.95430000       0.11290000       0.52630000
    99  H          0.95430000       0.38710000       0.02630000
   100  H          0.04570000       0.88710000       0.47370000
   101  C          0.25794000       0.65012000       0.00664000
   102  C          0.74206000       0.15012000       0.49336000
   103  C          0.74206000       0.34988000      -0.00664000
   104  C          0.25794000       0.84988000       0.50664000
   105  H          0.28120000       0.63840000       0.91580000
   106  H          0.71880000       0.13840000       0.58420000
   107  H          0.71880000       0.36160000       0.08420000
   108  H          0.28120000       0.86160000       0.41580000
   109  C          0.36454000       0.68202000       0.10404000
   110  C          0.63546000       0.18202000       0.39596000
   111  C          0.63546000       0.31798000       0.89596000
   112  C          0.36454000       0.81798000       0.60404000
   113  H          0.46100000       0.69120000       0.08060000
   114  H          0.53900000       0.19120000       0.41940000
   115  H          0.53900000       0.30880000       0.91940000
   116  H          0.46100000       0.80880000       0.58060000
   117  C          0.32974000       0.70042000       0.23594000
   118  C          0.67026000       0.20042000       0.26406000
   119  C          0.67026000       0.29958000       0.76406000
   120  C          0.32974000       0.79958000       0.73594000
   121  H          0.40250000       0.72190000       0.30320000
   122  H          0.59750000       0.22190000       0.19680000
   123  H          0.59750000       0.27810000       0.69680000
   124  H          0.40250000       0.77810000       0.80320000
   125  C          0.18874000       0.68717190       0.26933000
   126  C          0.81126000       0.18717190       0.23067000
   127  C          0.81126000       0.31282810       0.73067000
   128  C          0.18874000       0.81282810       0.76933000
   129  H          0.16470000       0.70150000       0.35890000
   130  H          0.83530000       0.20150000       0.14110000
   131  H          0.83530000       0.29850000       0.64110000
   132  H          0.16470000       0.79850000       0.85890000
   133  P          0.89964900       0.63898500       0.23177900
   134  P          0.10035100       0.13898500       0.26822100
   135  P          0.10035100       0.36101500       0.76822100
   136  P          0.89964900       0.86101500       0.73177900
