data_FACZUF03
_symmetry_space_group_name_H-M    'P1'
_symmetry_Int_Tables_number       1
loop_
_symmetry_equiv_pos_site_id
_symmetry_equiv_pos_as_xyz
1 x,y,z
_cell_length_a                   10.8386
_cell_length_b                   10.8427
_cell_length_c                   8.6295
_cell_angle_alpha                105.415
_cell_angle_beta                 99.815
_cell_angle_gamma                119.754
loop_
_atom_site_label
_atom_site_type_symbol
_atom_site_fract_x
_atom_site_fract_y
_atom_site_fract_z
     1  Br         0.16660700       0.06207600       0.92154200
     2  Br         0.83339300       0.93792400       0.07845800
     3  P          0.17825140       0.32810140       0.80235840
     4  P          0.82174860       0.67189860       0.19764160
     5  C          0.22425000       0.36715000       0.03366000
     6  C          0.77575000       0.63285000       0.96634000
     7  C          0.22205000       0.25525000       0.08786000
     8  C          0.77795000       0.74475000       0.91214000
     9  C          0.25456000       0.27627000       0.25887000
    10  C          0.74544000       0.72373000       0.74113000
    11  C          0.29436000       0.41168000       0.38197000
    12  C          0.70564000       0.58832000       0.61803000
    13  C          0.29926000       0.52637000       0.33477000
    14  C          0.70074000       0.47363000       0.66523000
    15  C          0.26376000       0.50406000       0.16277000
    16  C          0.73624000       0.49594000       0.83723000
    17  C          0.96815000       0.20185000       0.72504000
    18  C          0.03185000       0.79815000       0.27496000
    19  C          0.89084000       0.08546000       0.55874000
    20  C          0.10916000       0.91454000       0.44126000
    21  C          0.73354000      -0.01836000       0.49473000
    22  C          0.26646000       0.01836000       0.50527000
    23  C          0.65224000      -0.00446000       0.59872000
    24  C          0.34776000       0.00446000       0.40128000
    25  C          0.72564000       0.10926000       0.76142000
    26  C          0.27436000       0.89074000       0.23858000
    27  C          0.88385000       0.21386000       0.82733000
    28  C          0.11615000       0.78614000       0.17267000
    29  C          0.21915000       0.51505000       0.80214000
    30  C          0.78085000       0.48495000       0.19786000
    31  C          0.37176000       0.63666000       0.85243000
    32  C          0.62824000       0.36334000       0.14757000
    33  C          0.41037000       0.77466000       0.84102000
    34  C          0.58963000       0.22534000       0.15898000
    35  C          0.30117000       0.79686000       0.77723000
    36  C          0.69883000       0.20314000       0.22277000
    37  C          0.14907000       0.67766000       0.72613000
    38  C          0.85093000       0.32234000       0.27387000
    39  C          0.10896000       0.53916000       0.74054000
    40  C          0.89104000       0.46084000       0.25946000
    41  H          0.24930000       0.19820000       0.28950000
    42  H          0.75070000       0.80180000       0.71050000
    43  H          0.31810000       0.42710000       0.49710000
    44  H          0.68190000       0.57290000       0.50290000
    45  H          0.32660000       0.61870000       0.41880000
    46  H          0.67340000       0.38130000       0.58120000
    47  H          0.26620000       0.58140000       0.13300000
    48  H          0.73380000       0.41860000       0.86700000
    49  H          0.94560000       0.07690000       0.48940000
    50  H          0.05440000       0.92310000       0.51060000
    51  H          0.68310000       0.90390000       0.38360000
    52  H          0.31690000       0.09610000       0.61640000
    53  H          0.54670000       0.92650000       0.55670000
    54  H          0.45330000       0.07350000       0.44330000
    55  H          0.66980000       0.11730000       0.82940000
    56  H          0.33020000       0.88270000       0.17060000
    57  H          0.93320000       0.29110000       0.93890000
    58  H          0.06680000       0.70890000       0.06110000
    59  H          0.44800000       0.62430000       0.89410000
    60  H          0.55200000       0.37570000       0.10590000
    61  H          0.51270000       0.85470000       0.87730000
    62  H          0.48730000       0.14530000       0.12270000
    63  H          0.32890000       0.89020000       0.76880000
    64  H          0.67110000       0.10980000       0.23120000
    65  H          0.07360000       0.69030000       0.68200000
    66  H          0.92640000       0.30970000       0.31800000
    67  H          0.00650000       0.46090000       0.70860000
    68  H         -0.00650000       0.53910000       0.29140000
