data_FACZUF
_symmetry_space_group_name_H-M    'P1'
_symmetry_Int_Tables_number       1
loop_
_symmetry_equiv_pos_site_id
_symmetry_equiv_pos_as_xyz
1 x,y,z
_cell_length_a                   10.3715
_cell_length_b                   8.973519
_cell_length_c                   16.5566
_cell_angle_alpha                90.0
_cell_angle_beta                 92.334
_cell_angle_gamma                90.0
loop_
_atom_site_label
_atom_site_type_symbol
_atom_site_fract_x
_atom_site_fract_y
_atom_site_fract_z
     1  Br         0.68179600       0.91180500       0.49050300
     2  Br         0.31820400       0.41180500       0.00949700
     3  Br         0.31820400       0.08819500       0.50949700
     4  Br         0.68179600       0.58819500       0.99050300
     5  P          0.66009900       0.25187120       0.41885600
     6  P          0.33990100       0.75187120       0.08114400
     7  P          0.33990100       0.74812880       0.58114400
     8  P          0.66009900       0.24812880       0.91885600
     9  C          0.80094000       0.13685000       0.39502000
    10  C          0.19906000       0.63685000       0.10498000
    11  C          0.19906000       0.86315000       0.60498000
    12  C          0.80094000       0.36315000       0.89502000
    13  C          0.81184000      -0.00695000       0.42543000
    14  C          0.18816000       0.49305000       0.07457000
    15  C          0.18816000       0.00695000       0.57457000
    16  C          0.81184000       0.50695000       0.92543000
    17  C          0.91615000       0.90415000       0.40973000
    18  C          0.08385000       0.40415000       0.09027000
    19  C          0.08385000       0.09585000       0.59027000
    20  C          0.91615000       0.59585000       0.90973000
    21  C          0.01215000       0.95653000       0.36304000
    22  C         -0.01215000       0.45653000       0.13696000
    23  C         -0.01215000       0.04347000       0.63696000
    24  C          0.01215000       0.54347000       0.86304000
    25  C          0.00415000       0.09737000       0.33073000
    26  C         -0.00415000       0.59737000       0.16927000
    27  C         -0.00415000       0.90263000       0.66927000
    28  C          0.00415000       0.40263000       0.83073000
    29  C          0.89894000       0.18665000       0.34663000
    30  C          0.10106000       0.68665000       0.15337000
    31  C          0.10106000       0.81335000       0.65337000
    32  C          0.89894000       0.31335000       0.84663000
    33  C          0.71934000       0.34794000       0.51082000
    34  C          0.28066000       0.84794000       0.98918000
    35  C          0.28066000       0.65206000       0.48918000
    36  C          0.71934000       0.15206000       0.01082000
    37  C          0.62804000       0.39615000       0.56373000
    38  C          0.37196000       0.89615000       0.93627000
    39  C          0.37196000       0.60385000       0.43627000
    40  C          0.62804000       0.10385000       0.06373000
    41  C          0.66445000       0.47405000       0.63283000
    42  C          0.33555000       0.97405000       0.86717000
    43  C          0.33555000       0.52595000       0.36717000
    44  C          0.66445000       0.02595000       0.13283000
    45  C          0.79185000       0.50225000       0.65143000
    46  C          0.20815000       0.00225000       0.84857000
    47  C          0.20815000       0.49775000       0.34857000
    48  C          0.79185000      -0.00225000       0.15143000
    49  C          0.88424000       0.45446000       0.59973000
    50  C          0.11576000       0.95446000       0.90027000
    51  C          0.11576000       0.54554000       0.40027000
    52  C          0.88424000       0.04554000       0.09973000
    53  C          0.84884000       0.37825000       0.53013000
    54  C          0.15116000       0.87825000       0.96987000
    55  C          0.15116000       0.62175000       0.46987000
    56  C          0.84884000       0.12175000       0.03013000
    57  C          0.66714000       0.39764000       0.34172000
    58  C          0.33286000       0.89764000       0.15828000
    59  C          0.33286000       0.60236000       0.65828000
    60  C          0.66714000       0.10236000       0.84172000
    61  C          0.62974000       0.35665000       0.26333000
    62  C          0.37026000       0.85665000       0.23667000
    63  C          0.37026000       0.64335000       0.73667000
    64  C          0.62974000       0.14335000       0.76333000
    65  C          0.62024000       0.46166000       0.20213000
    66  C          0.37976000       0.96166000       0.29787000
    67  C          0.37976000       0.53834000       0.79787000
    68  C          0.62024000       0.03834000       0.70213000
    69  C          0.64625000       0.60885000       0.21843000
    70  C          0.35375000       0.10885000       0.28157000
    71  C          0.35375000       0.39115000       0.78157000
    72  C          0.64625000       0.89115000       0.71843000
    73  C          0.68284000       0.65095000       0.29583000
    74  C          0.31716000       0.15095000       0.20417000
    75  C          0.31716000       0.34905000       0.70417000
    76  C          0.68284000       0.84905000       0.79583000
    77  C          0.69464000       0.54675000       0.35692000
    78  C          0.30536000       0.04675000       0.14308000
    79  C          0.30536000       0.45325000       0.64308000
    80  C          0.69464000       0.95325000       0.85692000
    81  H          0.92140000       0.80630000       0.43140000
    82  H          0.07860000       0.30630000       0.06860000
    83  H          0.07860000       0.19370000       0.56860000
    84  H          0.92140000       0.69370000       0.93140000
    85  H          0.08450000       0.89540000       0.35300000
    86  H          0.91550000       0.39540000       0.14700000
    87  H          0.91550000       0.10460000       0.64700000
    88  H          0.08450000       0.60460000       0.85300000
    89  H          0.07010000       0.13330000       0.29760000
    90  H          0.92990000       0.63330000       0.20240000
    91  H          0.92990000       0.86670000       0.70240000
    92  H          0.07010000       0.36670000       0.79760000
    93  H          0.89360000       0.28370000       0.32390000
    94  H          0.10640000       0.78370000       0.17610000
    95  H          0.10640000       0.71630000       0.67610000
    96  H          0.89360000       0.21630000       0.82390000
    97  H          0.53930000       0.37530000       0.55230000
    98  H          0.46070000       0.87530000       0.94770000
    99  H          0.46070000       0.62470000       0.44770000
   100  H          0.53930000       0.12470000       0.05230000
   101  H          0.60030000       0.50840000       0.66770000
   102  H          0.39970000       0.00840000       0.83230000
   103  H          0.39970000       0.49160000       0.33230000
   104  H          0.60030000      -0.00840000       0.16770000
   105  H          0.81640000       0.55440000       0.69950000
   106  H          0.18360000       0.05440000       0.80050000
   107  H          0.18360000       0.44560000       0.30050000
   108  H          0.81640000       0.94560000       0.19950000
   109  H          0.97280000       0.47410000       0.61210000
   110  H          0.02720000       0.97410000       0.88790000
   111  H          0.02720000       0.52590000       0.38790000
   112  H          0.97280000       0.02590000       0.11210000
   113  H          0.91330000       0.34590000       0.49480000
   114  H          0.08670000       0.84590000       0.00520000
   115  H          0.08670000       0.65410000       0.50520000
   116  H          0.91330000       0.15410000      -0.00520000
   117  H          0.61050000       0.25520000       0.25150000
   118  H          0.38950000       0.75520000       0.24850000
   119  H          0.38950000       0.74480000       0.74850000
   120  H          0.61050000       0.24480000       0.75150000
   121  H          0.59560000       0.43160000       0.14870000
   122  H          0.40440000       0.93160000       0.35130000
   123  H          0.40440000       0.56840000       0.85130000
   124  H          0.59560000       0.06840000       0.64870000
   125  H          0.63900000       0.68090000       0.17650000
   126  H          0.36100000       0.18090000       0.32350000
   127  H          0.36100000       0.31910000       0.82350000
   128  H          0.63900000       0.81910000       0.67650000
   129  H          0.70010000       0.75280000       0.30730000
   130  H          0.29990000       0.25280000       0.19270000
   131  H          0.29990000       0.24720000       0.69270000
   132  H          0.70010000       0.74720000       0.80730000
   133  H          0.72180000       0.57720000       0.40980000
   134  H          0.27820000       0.07720000       0.09020000
   135  H          0.27820000       0.42280000       0.59020000
   136  H          0.72180000       0.92280000       0.90980000
