data_FAGLIM
_symmetry_space_group_name_H-M    'P1'
_symmetry_Int_Tables_number       1
loop_
_symmetry_equiv_pos_site_id
_symmetry_equiv_pos_as_xyz
1 x,y,z
_cell_length_a                   5.23684
_cell_length_b                   13.013313
_cell_length_c                   18.742516
_cell_angle_alpha                94.3945
_cell_angle_beta                 93.1474
_cell_angle_gamma                90.7715
loop_
_atom_site_label
_atom_site_type_symbol
_atom_site_fract_x
_atom_site_fract_y
_atom_site_fract_z
     1  F          0.29349000       0.84116000       0.21622000
     2  O          0.57575000       0.15148000       0.54471150
     3  H          0.43194800       0.16697100       0.52296600
     4  O          0.48436000       0.28348000       0.62172130
     5  O         -0.01287000       0.63468000       0.95229160
     6  N          0.93575000       0.27148000       0.69978140
     7  H          0.09407600       0.24301600       0.72799200
     8  H          0.80407600       0.26301600       0.72579200
     9  C          0.62884000       0.21897000       0.59901180
    10  C          0.89784000       0.20597000       0.63003180
    11  H          0.01724500       0.23095900       0.59646100
    12  C          0.96072000       0.09577000       0.64192000
    13  H          0.95489200       0.05575700       0.59667100
    14  H          0.83849700       0.06841500       0.67207500
    15  H          0.12920300       0.09313500       0.66462800
    16  C         -0.02747000       0.38447000       0.69147180
    17  H          0.83061900       0.40823800       0.66197500
    18  H          0.12802100       0.39489700       0.66689600
    19  C         -0.01037000       0.44777000       0.76216190
    20  C          0.17802000       0.52067000       0.77812000
    21  H          0.30373100       0.52820600       0.74564700
    22  C          0.18821000       0.58366000       0.84093000
    23  H          0.32134600       0.63163900       0.85064200
    24  C          0.00131000       0.57557000       0.88912000
    25  C          0.81321000       0.50247000       0.87442000
    26  H          0.68878200       0.49449600       0.90712400
    27  C          0.80592000       0.44027000       0.81122000
    28  H          0.67345600       0.39205600       0.80161500
    29  C          0.17069000       0.71606000       0.96813000
    30  H          0.18010100       0.75758400       0.92743900
    31  H          0.33833500       0.68809900       0.97824500
    32  C          0.08871000       0.78117000       0.03233000
    33  C          0.88628900       0.84566000       0.02803000
    34  H          0.79094200       0.84732200       0.98474100
    35  C          0.82028800       0.90846000       0.08653000
    36  H          0.67997000       0.95126900       0.08283900
    37  C          0.96158800       0.90766000       0.14973000
    38  H          0.92485500       0.95135000       0.18937500
    39  C          0.15468700       0.84195000       0.15263000
    40  C          0.22408900       0.77846000       0.09693000
    41  H          0.36039600       0.73410000       0.10211600
    42  F          0.59432000       0.79147000       0.84952000
    43  O          0.23745000       0.14948000       0.20915150
    44  H          0.08915500       0.16895800       0.18698400
    45  O          0.15525000       0.28298000       0.28583130
    46  O          0.80132000       0.62568000       0.61561170
    47  N          0.60275000       0.26478000       0.36533140
    48  H          0.74926300       0.23799500       0.39201000
    49  H          0.45626300       0.25999500       0.39171000
    50  C          0.29374000       0.21577000       0.26400190
    51  C          0.55814000       0.19687000       0.29679180
    52  H          0.68452500       0.21584200       0.26318700
    53  C          0.59842000       0.08557000       0.31232000
    54  H          0.58040400       0.04249500       0.26835000
    55  H          0.47372700       0.06524100       0.34438100
    56  H          0.76704900       0.07850100       0.33403300
    57  C          0.64443000       0.37647000       0.35492190
    58  H          0.49411400       0.40249200       0.33015100
    59  H          0.78813700       0.38397800       0.32506700
    60  C          0.69643000       0.43967000       0.42512000
    61  C          0.90102000       0.50777000       0.43422000
    62  H          0.01199600       0.51180400       0.39734000
    63  C          0.94571000       0.57097000       0.49743000
    64  H          0.08645300       0.61591800       0.50290200
    65  C          0.78051000       0.56617000       0.55122000
    66  C          0.57722000       0.49927000       0.54352000
    67  H          0.46693900       0.49553800       0.58045300
    68  C          0.53432000       0.43687000       0.48072000
    69  H          0.39355400       0.39206700       0.47584400
    70  C         -0.00531000       0.70196000       0.62453000
    71  H         -0.01523200       0.74452000       0.58411700
    72  H          0.16072200       0.66988000       0.62592600
    73  C          0.96569000       0.76807000       0.69273000
    74  C          0.12988900       0.85176000       0.70813000
    75  H          0.25619000       0.86555400       0.67693500
    76  C          0.10508700       0.91596000       0.77083000
    77  H          0.21517400       0.97252300       0.78094000
    78  C          0.92448800       0.89676000       0.81653000
    79  H          0.90518000       0.94051200       0.85740600
    80  C          0.77228900       0.81296000       0.80173000
    81  C          0.78678900       0.74706000       0.74073000
    82  H          0.67791300       0.68992500       0.73229600
    83  F          0.38389000       0.78297000       0.51662000
    84  O          0.90755000       0.14648000       0.87916850
    85  H          0.76503800       0.16601400       0.85599100
    86  O          0.81876000       0.28328000       0.95228870
    87  O          0.55293000       0.62638000       0.27908160
    88  N          0.27155000       0.27418000       0.03094140
    89  H          0.42126700       0.25094600       0.05853600
    90  H          0.13726700       0.26994600       0.06063600
    91  C          0.96204000       0.21637000       0.93186820
    92  C          0.23014000       0.20327000       0.96406820
    93  H          0.35130700       0.22374700       0.92946900
    94  C          0.28742000       0.09397000       0.98078000
    95  H          0.27492100       0.04983500       0.93724800
    96  H          0.16671200       0.07134300       0.01319900
    97  H          0.45745400       0.09140300       0.00248200
    98  C          0.30503000       0.38597000       0.01900190
    99  H          0.14652400       0.41141900      -0.00165600
   100  H          0.43645500       0.39358900       0.98516000
   101  C          0.37913000       0.44917000       0.08792000
   102  C          0.58993000       0.51507000       0.09292000
   103  H          0.68958100       0.51878300       0.05357800
   104  C          0.65582000       0.57587000       0.15572000
   105  H          0.79781200       0.62005100       0.15824200
   106  C          0.50981000       0.57017000       0.21382000
   107  C          0.29842000       0.50597000       0.20972000
   108  H          0.19931900       0.50263800       0.24912200
   109  C          0.23333000       0.44657000       0.14732000
   110  H          0.08882600       0.40389300       0.14487200
   111  C          0.74629000       0.70236000       0.28563000
   112  H          0.72649600       0.74669800       0.24636400
   113  H          0.91232300       0.67052000       0.28351300
   114  C          0.72969000       0.76537000       0.35613000
   115  C          0.89928800       0.84726000       0.37123000
   116  H          0.02254600       0.86135300       0.33928000
   117  C          0.88338500       0.90936000       0.43573000
   118  H         -0.00583700       0.96565700       0.44589400
   119  C          0.70798600       0.88746000       0.48293000
   120  H          0.69537600       0.92853900       0.52536400
   121  C          0.55498800       0.80645000       0.46713000
   122  C          0.55808900       0.74396000       0.40463000
   123  H          0.44488100       0.68821900       0.39580400
   124  Cl         0.12074820       0.19587100       0.44910500
   125  Cl         0.79006840       0.20909300       0.11678500
   126  Cl         0.45434820       0.19157200       0.78246500
