data_FAGLIM01
_symmetry_space_group_name_H-M    'P1'
_symmetry_Int_Tables_number       1
loop_
_symmetry_equiv_pos_site_id
_symmetry_equiv_pos_as_xyz
1 x,y,z
_cell_length_a                   5.43106
_cell_length_b                   11.841314
_cell_length_c                   26.1563
_cell_angle_alpha                90.0
_cell_angle_beta                 90.0
_cell_angle_gamma                90.0
loop_
_atom_site_label
_atom_site_type_symbol
_atom_site_fract_x
_atom_site_fract_y
_atom_site_fract_z
     1  Cl         0.12119190       0.85400100       0.26526500
     2  Cl         0.62119190       0.64599900       0.73473500
     3  Cl         0.87880810       0.35400100       0.23473500
     4  Cl         0.37880810       0.14599900       0.76526500
     5  F          0.96664000       0.18212000       0.43723120
     6  F          0.46664000       0.31788000       0.56276880
     7  F          0.03336000       0.68212000       0.06276880
     8  F          0.53336000       0.81788000       0.93723120
     9  O          0.68317000      -0.00453000       0.26692000
    10  O          0.18317000       0.50453000       0.73308000
    11  O          0.31683000       0.49547000       0.23308000
    12  O          0.81683000       0.00453000       0.76692000
    13  O          0.79156000       0.13673000       0.31647130
    14  O          0.29156000       0.36327000       0.68352870
    15  O          0.20844000       0.63673000       0.18352870
    16  O          0.70844000       0.86327000       0.81647130
    17  O          0.35486000       0.71102000       0.42730120
    18  O          0.85486000       0.78898000       0.57269880
    19  O          0.64514000       0.21102000       0.07269880
    20  O          0.14514000       0.28898000       0.92730120
    21  N          0.38288000       0.26013000       0.29353140
    22  N          0.88288000       0.23987000       0.70646860
    23  N          0.61712000       0.76013000       0.20646860
    24  N          0.11712000       0.73987000       0.79353140
    25  C          0.64919000       0.09224000       0.28925180
    26  C          0.14919000       0.40776000       0.71074820
    27  C          0.35081000       0.59224000       0.21074820
    28  C          0.85081000       0.90776000       0.78925180
    29  C          0.40277000       0.14253000       0.27307160
    30  C          0.90277000       0.35747000       0.72692840
    31  C          0.59723000       0.64253000       0.22692840
    32  C          0.09723000       0.85747000       0.77307160
    33  H          0.27067900       0.09689200       0.28811800
    34  H          0.77067900       0.40310800       0.71188200
    35  H          0.72932100       0.59689200       0.21188200
    36  H          0.22932100       0.90310800       0.78811800
    37  C          0.36951000       0.14354000       0.21571180
    38  C          0.86951000       0.35646000       0.78428820
    39  C          0.63049000       0.64354000       0.28428820
    40  C          0.13049000       0.85646000       0.71571180
    41  H          0.49808800       0.18752500       0.20033400
    42  H         -0.00191200       0.31247500       0.79966600
    43  H          0.50191200       0.68752500       0.29966600
    44  H          0.00191200       0.81247500       0.70033400
    45  H          0.21255900       0.17606000       0.20743300
    46  H          0.71255900       0.32394000       0.79256700
    47  H          0.78744100       0.67606000       0.29256700
    48  H          0.28744100       0.82394000       0.70743300
    49  H          0.37657100       0.06757400       0.20292500
    50  H          0.87657100       0.43242600       0.79707500
    51  H          0.62342900       0.56757400       0.29707500
    52  H          0.12342900       0.93242600       0.70292500
    53  C          0.32799000       0.26533000       0.34975160
    54  C          0.82799000       0.23467000       0.65024840
    55  C          0.67201000       0.76533000       0.15024840
    56  C          0.17201000       0.73467000       0.84975160
    57  H          0.44901900       0.22091300       0.36816900
    58  H          0.94901900       0.27908700       0.63183100
    59  H          0.55098100       0.72091300       0.13183100
    60  H          0.05098100       0.77908700       0.86816900
    61  H          0.16720700       0.23233300       0.35608300
    62  H          0.66720700       0.26766700       0.64391700
    63  H          0.83279300       0.73233300       0.14391700
    64  H          0.33279300       0.76766700       0.85608300
    65  C          0.33127000       0.38473000       0.36957150
    66  C          0.83127000       0.11527000       0.63042850
    67  C          0.66873000       0.88473000       0.13042850
    68  C          0.16873000       0.61527000       0.86957150
    69  C          0.14418000       0.45904000       0.35837170
    70  C          0.64418000       0.04096000       0.64162830
    71  C          0.85582000       0.95904000       0.14162830
    72  C          0.35582000       0.54096000       0.85837170
    73  H          0.01405200       0.43528600       0.33787300
    74  H          0.51405200       0.06471400       0.66212700
    75  H         -0.01405200       0.93528600       0.16212700
    76  H          0.48594800       0.56471400       0.83787300
    77  C          0.14548000       0.56804000       0.37689170
    78  C          0.64548000       0.93196000       0.62310830
    79  C          0.85452000       0.06804000       0.12310830
    80  C          0.35452000       0.43196000       0.87689170
    81  H          0.01713100       0.61678300       0.36872300
    82  H          0.51713100       0.88321700       0.63127700
    83  H         -0.01713100       0.11678300       0.13127700
    84  H          0.48286900       0.38321700       0.86872300
    85  C          0.33538000       0.60484000       0.40738160
    86  C          0.83538000       0.89516000       0.59261840
    87  C          0.66462000       0.10484000       0.09261840
    88  C          0.16462000       0.39516000       0.90738160
    89  C          0.52038000       0.53064000       0.41966170
    90  C          0.02038000       0.96936000       0.58033830
    91  C          0.47962000       0.03064000       0.08033830
    92  C         -0.02038000       0.46936000       0.91966170
    93  H          0.64798900       0.55401600       0.44082700
    94  H          0.14798900       0.94598400       0.55917300
    95  H          0.35201100       0.05401600       0.05917300
    96  H          0.85201100       0.44598400       0.94082700
    97  C          0.51908000       0.42234000       0.40110160
    98  C          0.01908000       0.07766000       0.59889840
    99  C          0.48092000       0.92234000       0.09889840
   100  C         -0.01908000       0.57766000       0.90110160
   101  H          0.64623800       0.37336500       0.40980700
   102  H          0.14623800       0.12663500       0.59019300
   103  H          0.35376200       0.87336500       0.09019300
   104  H          0.85376200       0.62663500       0.90980700
   105  C          0.17479000       0.79164000       0.41239190
   106  C          0.67479000       0.70836000       0.58760810
   107  C          0.82521000       0.29164000       0.08760810
   108  C          0.32521000       0.20836000       0.91239190
   109  H          0.01351900       0.76793000       0.42421400
   110  H          0.51351900       0.73207000       0.57578600
   111  H         -0.01351900       0.26793000       0.07578600
   112  H          0.48648100       0.23207000       0.92421400
   113  H          0.16987900       0.79735100       0.37540800
   114  H          0.66987900       0.70264900       0.62459200
   115  H          0.83012100       0.29735100       0.12459200
   116  H          0.33012100       0.20264900       0.87540800
   117  C          0.23919000       0.90444000       0.43522160
   118  C          0.73919000       0.59556000       0.56477840
   119  C          0.76081000       0.40444000       0.06477840
   120  C          0.26081000       0.09556000       0.93522160
   121  C          0.44338000       0.92414000       0.46472180
   122  C          0.94338000       0.57586000       0.53527820
   123  C          0.55662000       0.42414000       0.03527820
   124  C          0.05662000       0.07586000       0.96472180
   125  H          0.55260300       0.86551500       0.47152500
   126  H          0.05260300       0.63448500       0.52847500
   127  H          0.44739700       0.36551500       0.02847500
   128  H          0.94739700       0.13448500       0.97152500
   129  C          0.48761000       0.03105000       0.48449190
   130  C         -0.01239000       0.46895000       0.51550810
   131  C          0.51239000       0.53105000       0.01550810
   132  C          0.01239000       0.96895000       0.98449190
   133  H          0.62685100       0.04341700       0.50439300
   134  H          0.12685100       0.45658300       0.49560700
   135  H          0.37314900       0.54341700      -0.00439300
   136  H          0.87314900       0.95658300       0.00439300
   137  C          0.32961100       0.11794000       0.47510180
   138  C          0.82961100       0.38206000       0.52489820
   139  C          0.67038900       0.61794000       0.02489820
   140  C          0.17038900       0.88206000       0.97510180
   141  H          0.35919700       0.18978500       0.48801200
   142  H          0.85919700       0.31021500       0.51198800
   143  H          0.64080300       0.68978500       0.01198800
   144  H          0.14080300       0.81021500       0.98801200
   145  C          0.12741000       0.09604000       0.44626180
   146  C          0.62741000       0.40396000       0.55373820
   147  C          0.87259000       0.59604000       0.05373820
   148  C          0.37259000       0.90396000       0.94626180
   149  C          0.07649000      -0.00717000       0.42509170
   150  C          0.57649000       0.50717000       0.57490830
   151  C          0.92351000       0.49283000       0.07490830
   152  C          0.42351000       0.00717000       0.92509170
   153  H          0.93814300       0.98203000       0.40468400
   154  H          0.43814300       0.51797000       0.59531600
   155  H          0.06185700       0.48203000       0.09531600
   156  H          0.56185700       0.01797000       0.90468400
   157  H          0.25880000       0.29030000       0.27811500
   158  H          0.75880000       0.20970000       0.72188500
   159  H          0.74120000       0.79030000       0.22188500
   160  H          0.24120000       0.70970000       0.77811500
   161  H          0.84070000       0.96550000       0.27230000
   162  H          0.34070000       0.53450000       0.72770000
   163  H          0.15930000       0.46550000       0.22770000
   164  H          0.65930000       0.03450000       0.77230000
   165  H          0.54011000       0.29950000       0.28421900
   166  H          0.04011000       0.20050000       0.71578100
   167  H          0.45989000       0.79950000       0.21578100
   168  H          0.95989000       0.70050000       0.78421900
