data_FAGLIM04
_symmetry_space_group_name_H-M    'P1'
_symmetry_Int_Tables_number       1
loop_
_symmetry_equiv_pos_site_id
_symmetry_equiv_pos_as_xyz
1 x,y,z
_cell_length_a                   5.247516
_cell_length_b                   12.6484
_cell_length_c                   26.23011
_cell_angle_alpha                99.44513
_cell_angle_beta                 91.01713
_cell_angle_gamma                100.74512
loop_
_atom_site_label
_atom_site_type_symbol
_atom_site_fract_x
_atom_site_fract_y
_atom_site_fract_z
     1  C          0.21546000       0.29163000       0.39198130
     2  C          0.50196000       0.34293000       0.40056130
     3  H          0.60371500       0.28645500       0.38938800
     4  C          0.57977000       0.39183000       0.45699140
     5  H          0.76202100       0.42260900       0.46022100
     6  H          0.54311900       0.33569400       0.47788000
     7  H          0.48290400       0.44794600       0.46840300
     8  C          0.58166000       0.38853000       0.31089120
     9  H          0.72643000       0.35069300       0.30624900
    10  H          0.42411300       0.33628000       0.29848500
    11  C          0.61706000       0.47883000       0.27931120
    12  C          0.80178000       0.48544000       0.24277160
    13  H          0.91312600       0.43571500       0.23913000
    14  C          0.82559000       0.56434000       0.21120170
    15  H          0.95351100       0.56765100       0.18712700
    16  C          0.65998000       0.63783000       0.21541140
    17  C          0.47949000       0.63353000       0.25218150
    18  H          0.37190300       0.68469900       0.25648100
    19  C          0.45428000       0.55433000       0.28298150
    20  H          0.32510300       0.55126000       0.30682500
    21  C          0.83391000       0.72244000       0.14524170
    22  H          0.81847200       0.65053800       0.12432900
    23  H          0.01176600       0.74650000       0.15907000
    24  C          0.76328000       0.80153000       0.11288150
    25  C          0.53891000       0.77544000       0.08128190
    26  H          0.42717500       0.70887700       0.08082400
    27  C          0.47821100       0.84654000       0.05047180
    28  H          0.32570500       0.82794200       0.02967900
    29  C          0.64181100       0.94444000       0.05038180
    30  H          0.60474500      -0.00735200       0.02937300
    31  C          0.85851100       0.96854000       0.08182000
    32  C          0.92431000       0.90104000       0.11352000
    33  H          0.07434200       0.92181700       0.13502000
    34  H          0.72380000       0.47030000       0.38001400
    35  H          0.44170000       0.47530000       0.37141200
    36  H         -0.02011000       0.18840000       0.41420000
    37  N          0.56455000       0.43062000       0.36763110
    38  O          0.14545000       0.22562000       0.42511120
    39  O          0.07364000       0.30904190       0.35893100
    40  O          0.66076000       0.71822000       0.18635110
    41  F          0.02109000       0.06583000       0.08202000
    42  C          0.71516000       0.79243000       0.39400130
    43  C          0.00236000       0.84303000       0.40018120
    44  H          0.10026700       0.78498600       0.38936100
    45  C          0.09447000       0.89643000       0.45556140
    46  H          0.27459500       0.93000400       0.45635100
    47  H          0.07245600       0.84184500       0.47746400
    48  H         -0.00582200       0.95082900       0.46769900
    49  C          0.06806000       0.87963000       0.30879120
    50  H          0.89563300       0.84014800       0.29637500
    51  H          0.18528200       0.82824200       0.30450700
    52  C          0.15416000       0.96773000       0.27716130
    53  C          0.35517000       0.96133000       0.24399150
    54  H          0.44034900       0.90267400       0.24198200
    55  C          0.43218000       0.04124000       0.21355150
    56  H          0.56667500       0.03553200       0.19126200
    57  C          0.30728000       0.12833000       0.21680140
    58  C          0.10708000       0.13643000       0.24983130
    59  H          0.02475200       0.19601200       0.25220600
    60  C          0.02877000       0.05643000       0.27932130
    61  H          0.89102600       0.06162800       0.30084900
    62  C          0.54439000       0.20484000       0.15012170
    63  H          0.50326100       0.13303100       0.12871600
    64  H          0.71875500       0.21503900       0.16539900
    65  C          0.52759000       0.29184000       0.11781150
    66  C          0.68051000       0.29444000       0.07498170
    67  H          0.79296200       0.24564800       0.06776400
    68  C          0.66251200       0.37144000       0.04294180
    69  H          0.76209300       0.37287300       0.01399200
    70  C          0.50061100       0.44444000       0.05365180
    71  H          0.48797900       0.49499100       0.03216700
    72  C          0.35981100       0.44134000       0.09602000
    73  C          0.36821000       0.36684000       0.12862170
    74  H          0.26780000       0.36721600       0.15748400
    75  H          0.23880000       0.97130000       0.37811400
    76  H          0.94860000       0.96730000       0.36861200
    77  H          0.49111000       0.68550000       0.41820000
    78  N          0.06375000       0.92632000       0.36511100
    79  O          0.64925000       0.73182000       0.42974120
    80  O          0.56944000       0.80657190       0.36120100
    81  O          0.36397000       0.21352000       0.18954110
    82  F          0.20328000       0.51643000       0.10751140
    83  C          0.46213000       0.54447000       0.89297160
    84  C          0.74763000       0.59687000       0.90060160
    85  H          0.84883300       0.54072200       0.88843300
    86  C          0.83482000       0.64416000       0.95624170
    87  H          0.01686800       0.67539800       0.95821500
    88  H          0.80420800       0.58741500       0.97685600
    89  H          0.73886700       0.69983700       0.96898500
    90  C          0.82302000       0.64177000       0.81070150
    91  H          0.66764500       0.58851000       0.79815200
    92  H         -0.02968100       0.60542200       0.80636800
    93  C          0.85523000       0.73217000       0.77901140
    94  C          0.03948000       0.73746000       0.74255170
    95  H          0.14893100       0.68707200       0.73900600
    96  C          0.06639000       0.81616000       0.71081190
    97  H          0.19418800       0.81905600       0.68671800
    98  C          0.90252000       0.88987000       0.71525160
    99  C          0.71831000       0.88506000       0.75132170
   100  H          0.60791000       0.93516500       0.75466200
   101  C          0.69382000       0.80706000       0.78283160
   102  H          0.56644000       0.80497300       0.80704100
   103  C          0.07871000       0.97406000       0.64434190
   104  H          0.06249400       0.90220400       0.62344800
   105  H          0.25655700      -0.00209200       0.65817900
   106  C          0.00919000       0.05354000       0.61193170
   107  C          0.78768900       0.02764000       0.58012000
   108  H          0.67423200       0.96156400       0.57995800
   109  C          0.73018800       0.09845000       0.54812000
   110  H          0.57987600       0.07969300       0.52665400
   111  C          0.89558800       0.19525000       0.54834190
   112  H          0.86450200       0.24269100       0.52643100
   113  C          0.10851200       0.22015000       0.58183000
   114  C          0.17171100       0.15215000       0.61252000
   115  H          0.32293700       0.17175100       0.63366000
   116  H          0.96120000       0.72770000       0.88031500
   117  H          0.66910000       0.72860000       0.87041700
   118  H          0.24190000       0.44060000       0.91851700
   119  N          0.80294000       0.68407000       0.86721120
   120  O          0.39214000       0.48227000       0.92760130
   121  O          0.31955000       0.55918000       0.85927110
   122  O          0.90393000       0.97037000       0.68571120
   123  F          0.27079000       0.31663000       0.58132000
   124  C          0.94203000       0.04303000       0.89440170
   125  C          0.23037000       0.09263000       0.90175160
   126  H          0.32840200       0.03440100       0.89147100
   127  C          0.31368000       0.14534000       0.95707170
   128  H          0.49625900       0.17530500       0.95928300
   129  H          0.27821000       0.09143800       0.97919300
   130  H          0.21906000       0.20254500       0.96780000
   131  C          0.29948000       0.13013000       0.81035150
   132  H          0.41411700       0.07767100       0.80597100
   133  H          0.12623000       0.09190300       0.79779400
   134  C          0.38997000       0.21823000       0.77909150
   135  C          0.59018000       0.21124000       0.74554160
   136  H          0.67307400       0.15185000       0.74307600
   137  C          0.66958000       0.29184000       0.71539170
   138  H          0.80496300       0.28641000       0.69330800
   139  C          0.54539000       0.37914000       0.71871160
   140  C          0.34619000       0.38744000       0.75101160
   141  H          0.26334200       0.44674200       0.75295900
   142  C          0.26658000       0.30753000       0.78091150
   143  H          0.12925300       0.31349900       0.80247100
   144  C          0.78411000       0.45475000       0.65140190
   145  H          0.74282500       0.38302500       0.62993600
   146  H          0.95825100       0.46461000       0.66676400
   147  C          0.76961000       0.54184000       0.61902170
   148  C          0.92321100       0.54474000       0.57672000
   149  H          0.03506700       0.49562900       0.56962100
   150  C          0.90931300       0.62195000       0.54442190
   151  H          0.01191500       0.62364200       0.51591600
   152  C          0.74671300       0.69455000       0.55452000
   153  H          0.73337600       0.74436100       0.53261000
   154  C          0.60581100       0.69245000       0.59692000
   155  C          0.61161100       0.61645000       0.62958190
   156  H          0.50939600       0.61643400       0.65819100
   157  H          0.46080000       0.21630000       0.87811300
   158  H          0.16880000       0.22340000       0.86901600
   159  H          0.70190000       0.93360000       0.91811800
   160  N          0.29586000       0.17663000       0.86681130
   161  O          0.87454000       0.97907000       0.92839130
   162  O          0.79705000       0.06022000       0.86182110
   163  O          0.60308000       0.46323000       0.69088120
   164  F          0.44888000       0.76753000       0.60836150
   165  Cl         0.13800160       0.57485700       0.40676300
   166  Cl         0.63709150       0.07263700       0.39872400
   167  Cl         0.36740820       0.82463100       0.90553500
   168  Cl         0.88148000       0.32640900       0.90149500
