data_FAGLIM03
_symmetry_space_group_name_H-M    'P1'
_symmetry_Int_Tables_number       1
loop_
_symmetry_equiv_pos_site_id
_symmetry_equiv_pos_as_xyz
1 x,y,z
_cell_length_a                   5.219019
_cell_length_b                   12.5215
_cell_length_c                   13.9317
_cell_angle_alpha                112.512
_cell_angle_beta                 94.21315
_cell_angle_gamma                99.90314
loop_
_atom_site_label
_atom_site_type_symbol
_atom_site_fract_x
_atom_site_fract_y
_atom_site_fract_z
     1  C          0.51155000       0.46552000       0.78532000
     2  C          0.80425000       0.51872000       0.79892000
     3  H          0.89785000       0.45218700       0.77245300
     4  C          0.92755000       0.59732000       0.91272000
     5  H          0.11379000       0.62992700       0.91523400
     6  H          0.91216100       0.55011300       0.95500800
     7  H          0.83582400       0.66217100       0.94073300
     8  C          0.82815000       0.51412000       0.61652000
     9  H         -0.02617800       0.47152400       0.60624200
    10  H          0.66010600       0.45432000       0.59104800
    11  C          0.84565000       0.58842000       0.55312000
    12  C          0.01685000       0.57583000       0.48012000
    13  H          0.13133500       0.52284100       0.47331800
    14  C          0.02596000       0.63883000       0.41632000
    15  H          0.14464600       0.62852400       0.36656900
    16  C          0.86045000       0.71622000       0.42612000
    17  C          0.68746000       0.73013000       0.49892000
    18  H          0.57393100       0.78356600       0.50605200
    19  C          0.67975000       0.66652000       0.56092000
    20  H          0.55898700       0.67613000       0.60986000
    21  C          0.00506000       0.76553000       0.28532000
    22  H         -0.01991100       0.67997900       0.24091600
    23  H          0.19370400       0.79768100       0.31517000
    24  C          0.91735000       0.82932000       0.22102000
    25  C          0.67136000       0.78823000       0.15852000
    26  H          0.55465500       0.72108500       0.15865700
    27  C          0.59456000       0.84423000       0.09602000
    28  H          0.42628100       0.81513200       0.05353600
    29  C          0.76286000       0.94263000       0.09532000
    30  H          0.71396300       0.98095700       0.05189600
    31  C          0.00096000       0.98263000       0.15923000
    32  C          0.08466000       0.92933000       0.22212000
    33  H          0.25214600       0.95996700       0.26519000
    34  H          0.00760000       0.64130000       0.75920000
    35  H          0.31080000       0.37940000       0.83730000
    36  H          0.71760000       0.63330000       0.74020000
    37  N          0.84314000       0.58902000       0.73221170
    38  O          0.46044000       0.42331190       0.85720160
    39  O          0.35023000       0.46162160       0.71661140
    40  O          0.84724000       0.78332180       0.36849150
    41  F          0.16834000       0.07936180       0.15899180
    42  C         -0.00645000       0.96468000       0.78582000
    43  C          0.28775000       0.01732000       0.80012000
    44  H          0.38184700       0.95055200       0.77801300
    45  C          0.40305000       0.10023000       0.91302000
    46  H          0.59205100       0.12946300       0.91751300
    47  H          0.37548400       0.05733500       0.95861900
    48  H          0.31589000       0.16721600       0.93567300
    49  C          0.30755000       0.00452000       0.61432000
    50  H          0.12347200       0.95903500       0.58851000
    51  H          0.42312700       0.94742200       0.60436200
    52  C          0.38005000       0.07722000       0.55162000
    53  C          0.56785000       0.05292000       0.48532000
    54  H          0.65384500      -0.00942500       0.48080100
    55  C          0.63345000       0.11783000       0.42532000
    56  H          0.76237000       0.09986800       0.38025700
    57  C          0.50695000       0.20932000       0.43232000
    58  C          0.32005000       0.23462000       0.49832000
    59  H          0.23561700       0.29761000       0.50340000
    60  C          0.25465000       0.16902000       0.55702000
    61  H          0.12375800       0.18645100       0.60111200
    62  C          0.71856000       0.24953000       0.29842000
    63  H          0.66491400       0.16378900       0.25294500
    64  H          0.90399300       0.26678700       0.33115600
    65  C          0.69155000       0.32093000       0.23362000
    66  C          0.83306000       0.30313000       0.14972000
    67  H          0.94657000       0.24899600       0.13643700
    68  C          0.80966000       0.36353000       0.08552000
    69  H          0.90613200       0.35010400       0.02825500
    70  C          0.64576000       0.44373000       0.10432000
    71  H          0.62488900       0.48445100       0.06000600
    72  C          0.51496000       0.46173000       0.18942000
    73  C          0.53196000       0.40203000       0.25452000
    74  H          0.43634600       0.41646200       0.31202900
    75  H          0.77220000       0.87670000       0.84230000
    76  H          0.50960000       0.12930000       0.75520000
    77  H          0.21460000       0.13230000       0.73820000
    78  N          0.33554000       0.08289190       0.72956170
    79  O          0.94506000       0.92126810       0.85699160
    80  O          0.83117000       0.96339840       0.71909150
    81  O          0.55344000       0.28040180       0.37810150
    82  F          0.35944000       0.54290170       0.21061150
    83  Cl         0.42566100       0.75263500       0.81050500
    84  Cl         0.93546890       0.25203500       0.80165500
