data_FAHNOR05
_symmetry_space_group_name_H-M    'P1'
_symmetry_Int_Tables_number       1
loop_
_symmetry_equiv_pos_site_id
_symmetry_equiv_pos_as_xyz
1 x,y,z
_cell_length_a                   24.2491
_cell_length_b                   11.0791
_cell_length_c                   5.2571
_cell_angle_alpha                90.0
_cell_angle_beta                 90.0
_cell_angle_gamma                90.0
loop_
_atom_site_label
_atom_site_type_symbol
_atom_site_fract_x
_atom_site_fract_y
_atom_site_fract_z
     1  S          0.13906100       0.14005300      -0.00000000
     2  S          0.36093900       0.64005300       0.50000000
     3  S          0.63906100       0.35994700      -0.00000000
     4  S          0.86093900       0.85994700       0.50000000
     5  S          0.97135900       0.19422300       0.23376900
     6  S          0.52864100       0.69422300       0.73376900
     7  S          0.47135900       0.30577700       0.23376900
     8  S          0.02864100       0.80577700       0.73376900
     9  O          0.13031400       0.15112800       0.72801790
    10  O          0.36968600       0.65112800       0.22801790
    11  O          0.63031400       0.34887200       0.72801790
    12  O          0.86968600       0.84887200       0.22801790
    13  O          0.16406400       0.24061800       0.13072220
    14  O          0.33593600       0.74061800       0.63072220
    15  O          0.66406400       0.25938200       0.13072220
    16  O          0.83593600       0.75938200       0.63072220
    17  O          0.97967500       0.20742110       0.50300250
    18  O          0.52032500       0.70742110       0.00300250
    19  O          0.47967500       0.29257890       0.50300250
    20  O          0.02032500       0.79257890       0.00300250
    21  O          0.94688600       0.08433900       0.14014260
    22  O          0.55311400       0.58433900       0.64014260
    23  O          0.44688600       0.41566100       0.14014260
    24  O          0.05311400       0.91566100       0.64014260
    25  C          0.17955500       0.01052110       0.05509250
    26  C          0.32044500       0.51052110       0.55509250
    27  C          0.67955500       0.48947890       0.05509250
    28  C          0.82044500      -0.01052110       0.55509250
    29  C          0.21430600       0.00835120       0.26587280
    30  C          0.28569400       0.50835120       0.76587280
    31  C          0.71430600       0.49164880       0.26587280
    32  C          0.78569400      -0.00835120       0.76587280
    33  C          0.24877600       0.90908860       0.29959290
    34  C          0.25122400       0.40908860       0.79959290
    35  C          0.74877600       0.59091140       0.29959290
    36  C          0.75122400       0.09091140       0.79959290
    37  C          0.24791600       0.81485860       0.12480320
    38  C          0.25208400       0.31485860       0.62480320
    39  C          0.74791600       0.68514140       0.12480320
    40  C          0.75208400       0.18514140       0.62480320
    41  C          0.21254600       0.81754870       0.91784700
    42  C          0.28745400       0.31754870       0.41784700
    43  C          0.71254600       0.68245130       0.91784700
    44  C          0.78745400       0.18245130       0.41784700
    45  C          0.17782500       0.91608880       0.88079700
    46  C          0.32217500       0.41608880       0.38079700
    47  C          0.67782500       0.58391120       0.88079700
    48  C          0.82217500       0.08391120       0.38079700
    49  C          0.07431500       0.10946120       0.14586280
    50  C          0.42568500       0.60946120       0.64586280
    51  C          0.57431500       0.39053880       0.14586280
    52  C          0.92568500       0.89053880       0.64586280
    53  C          0.03598500       0.21403120       0.07922280
    54  C          0.46401500       0.71403120       0.57922280
    55  C          0.53598500       0.28596880       0.07922280
    56  C          0.96401500       0.78596880       0.57922280
    57  C          0.93205500       0.31807120       0.12371290
    58  C          0.56794500       0.81807120       0.62371290
    59  C          0.43205500       0.18192880       0.12371290
    60  C          0.06794500       0.68192880       0.62371290
    61  C          0.93960300       0.43025140       0.23573410
    62  C          0.56039700       0.93025140       0.73573410
    63  C          0.43960300       0.06974860       0.23573410
    64  C          0.06039700       0.56974860       0.73573410
    65  C          0.90936200       0.52799150       0.14250430
    66  C          0.59063800       0.02799150       0.64250430
    67  C          0.40936200       0.97200850       0.14250430
    68  C          0.09063800       0.47200850       0.64250430
    69  C          0.87279300       0.51310140       0.94551650
    70  C          0.62720700       0.01310140       0.44551650
    71  C          0.37279300       0.98689860       0.94551650
    72  C          0.12720700       0.48689860       0.44551650
    73  C          0.86558400       0.40031150       0.83496660
    74  C          0.63441600       0.90031150       0.33496660
    75  C          0.36558400       0.09968850       0.83496660
    76  C          0.13441600       0.59968850       0.33496660
    77  C          0.89553400       0.30156130       0.92271710
    78  C          0.60446600       0.80156130       0.42271710
    79  C          0.39553400       0.19843870       0.92271710
    80  C          0.10446600       0.69843870       0.42271710
    81  H          0.21248000       0.07471800       0.37515000
    82  H          0.28752000       0.57471800       0.87515000
    83  H          0.71248000       0.42528200       0.37515000
    84  H          0.78752000       0.92528200       0.87515000
    85  H          0.27238000       0.90628400       0.44244000
    86  H          0.22762000       0.40628400       0.94244000
    87  H          0.77238000       0.59371600       0.44244000
    88  H          0.72762000       0.09371600       0.94244000
    89  H          0.27367000       0.74938300       0.13944000
    90  H          0.22633000       0.24938300       0.63944000
    91  H          0.77367000       0.75061700       0.13944000
    92  H          0.72633000       0.25061700       0.63944000
    93  H          0.21228000       0.75518100       0.78055800
    94  H          0.28772000       0.25518100       0.28055800
    95  H          0.71228000       0.74481900       0.78055800
    96  H          0.78772000       0.24481900       0.28055800
    97  H          0.15578000       0.92438400       0.73495400
    98  H          0.34422000       0.42438400       0.23495400
    99  H          0.65578000       0.57561600       0.73495400
   100  H          0.84422000       0.07561600       0.23495400
   101  H          0.06087000       0.03711600       0.07744000
   102  H          0.43913000       0.53711600       0.57744000
   103  H          0.56087000       0.46288400       0.07744000
   104  H          0.93913000       0.96288400       0.57744000
   105  H          0.08228000       0.10331600       0.31643900
   106  H          0.41772000       0.60331600       0.81643900
   107  H          0.58228000       0.39668400       0.31643900
   108  H          0.91772000       0.89668400       0.81643900
   109  H          0.02878000       0.21661700       0.90075400
   110  H          0.47122000       0.71661700       0.40075400
   111  H          0.52878000       0.28338300       0.90075400
   112  H          0.97122000       0.78338300       0.40075400
   113  H          0.04807000       0.29191600       0.14803900
   114  H          0.45193000       0.79191600       0.64803900
   115  H          0.54807000       0.20808400       0.14803900
   116  H          0.95193000       0.70808400       0.64803900
   117  H          0.96251000       0.44321800       0.36525600
   118  H          0.53749000       0.94321800       0.86525600
   119  H          0.46251000       0.05678200       0.36525600
   120  H          0.03749000       0.55678200       0.86525600
   121  H          0.91509000       0.60312300       0.23035900
   122  H          0.58491000       0.10312300       0.73035900
   123  H          0.41509000       0.89687700       0.23035900
   124  H          0.08491000       0.39687700       0.73035900
   125  H          0.85211000       0.57482000       0.88704700
   126  H          0.64789000       0.07482000       0.38704700
   127  H          0.35211000       0.92518000       0.88704700
   128  H          0.14789000       0.42518000       0.38704700
   129  H          0.84091000       0.38781800       0.68965600
   130  H          0.65909000       0.88781800       0.18965600
   131  H          0.34091000       0.11218200       0.68965600
   132  H          0.15909000       0.61218200       0.18965600
   133  H          0.89133000       0.22501600       0.83975800
   134  H          0.60867000       0.72501600       0.33975800
   135  H          0.39133000       0.27498400       0.83975800
   136  H          0.10867000       0.77498400       0.33975800
