data_FAHNOR07
_symmetry_space_group_name_H-M    'P1'
_symmetry_Int_Tables_number       1
loop_
_symmetry_equiv_pos_site_id
_symmetry_equiv_pos_as_xyz
1 x,y,z
_cell_length_a                   12.1502
_cell_length_b                   5.17048
_cell_length_c                   21.8474
_cell_angle_alpha                90.0
_cell_angle_beta                 96.3342
_cell_angle_gamma                90.0
loop_
_atom_site_label
_atom_site_type_symbol
_atom_site_fract_x
_atom_site_fract_y
_atom_site_fract_z
     1  C          0.64262000       0.94685000       0.37331130
     2  C          0.85738000       0.44685000       0.12668870
     3  C          0.35738000       0.05315000       0.62668870
     4  C          0.14262000       0.55315000       0.87331130
     5  C          0.58732000       0.75916000       0.33641130
     6  C          0.91268000       0.25916000       0.16358870
     7  C          0.41268000       0.24084000       0.66358870
     8  C          0.08732000       0.74084000       0.83641130
     9  H          0.50915800       0.74165100       0.33472200
    10  H         -0.00915800       0.24165100       0.16527800
    11  H          0.49084200       0.25834900       0.66527800
    12  H          0.00915800       0.75834900       0.83472200
    13  C          0.64712000       0.59836000       0.30225130
    14  C          0.85288000       0.09836000       0.19774870
    15  C          0.35288000       0.40164000       0.69774870
    16  C          0.14712000       0.90164000       0.80225130
    17  H          0.61023500       0.46925900       0.27668200
    18  H          0.88976500       0.96925900       0.22331800
    19  H          0.38976500       0.53074100       0.72331800
    20  H          0.11023500       0.03074100       0.77668200
    21  C          0.76162000       0.62446000       0.30512130
    22  C          0.73838000       0.12446000       0.19487870
    23  C          0.23838000       0.37554000       0.69487870
    24  C          0.26162000       0.87554000       0.80512130
    25  H          0.80270900       0.51268600       0.28165700
    26  H          0.69729100       0.01268600       0.21834300
    27  H          0.19729100       0.48731400       0.71834300
    28  H          0.30270900      -0.01268600       0.78165700
    29  C          0.81572000       0.81296000       0.34208130
    30  C          0.68428000       0.31296000       0.15791870
    31  C          0.18428000       0.18704000       0.65791870
    32  C          0.31572000       0.68704000       0.84208130
    33  H          0.89372600       0.83119500       0.34356100
    34  H          0.60627400       0.33119500       0.15643900
    35  H          0.10627400       0.16880500       0.65643900
    36  H          0.39372600       0.66880500       0.84356100
    37  C          0.75662000      -0.02514000       0.37687130
    38  C          0.74338000       0.47486000       0.12312870
    39  C          0.24338000       0.02514000       0.62312870
    40  C          0.25662000       0.52514000       0.87687130
    41  H          0.79347100       0.10287200       0.40272500
    42  H          0.70652900       0.60287200       0.09727500
    43  H          0.20652900       0.89712800       0.59727500
    44  H          0.29347100       0.39712800       0.90272500
    45  S          0.56643500       0.14353140       0.41955300
    46  S          0.93356500       0.64353140       0.08044700
    47  S          0.43356500       0.85646860       0.58044700
    48  S          0.06643500       0.35646860       0.91955300
    49  O          0.46510150       0.22124000       0.38320900
    50  O          0.03489850       0.72124000       0.11679100
    51  O          0.53489850       0.77876000       0.61679100
    52  O          0.96510150       0.27876000       0.88320900
    53  O          0.63761160       0.33954000       0.44836900
    54  O          0.86238840       0.83954000       0.05163100
    55  O          0.36238840       0.66046000       0.55163100
    56  O          0.13761160       0.16046000       0.94836900
    57  C          0.53202000       0.92626000       0.47743130
    58  C          0.96798000       0.42626000       0.02256870
    59  C          0.46798000       0.07374000       0.52256870
    60  C          0.03202000       0.57374000       0.97743130
    61  H          0.48605900       0.78302800       0.45845400
    62  H          0.01394100       0.28302800       0.04154600
    63  H          0.51394100       0.21697200       0.54154600
    64  H          0.98605900       0.71697200       0.95845400
    65  H          0.60026200       0.85151100       0.49939400
    66  H          0.89973800       0.35151100       0.00060600
    67  H          0.39973800       0.14848900       0.50060600
    68  H          0.10026200       0.64848900      -0.00060600
    69  C          0.13112000       0.45216000       0.38933130
    70  C          0.36888000       0.95216000       0.11066870
    71  C          0.86888000       0.54784000       0.61066870
    72  C          0.63112000       0.04784000       0.88933130
    73  C          0.22042000       0.62166000       0.39797140
    74  C          0.27958000       0.12166000       0.10202860
    75  C          0.77958000       0.37834000       0.60202860
    76  C          0.72042000       0.87834000       0.89797140
    77  H          0.26651600       0.62664900       0.43600700
    78  H          0.23348400       0.12664900       0.06399300
    79  H          0.73348400       0.37335100       0.56399300
    80  H          0.76651600       0.87335100       0.93600700
    81  C          0.24062000       0.78346000       0.34957150
    82  C          0.25938000       0.28346000       0.15042850
    83  C          0.75938000       0.21654000       0.65042850
    84  C          0.74062000       0.71654000       0.84957150
    85  H          0.30049500       0.90235400       0.35473100
    86  H          0.19950500       0.40235400       0.14526900
    87  H          0.69950500       0.09764600       0.64526900
    88  H          0.80049500       0.59764600       0.85473100
    89  C          0.17443000       0.77267000       0.29423150
    90  C          0.32557000       0.27267000       0.20576850
    91  C          0.82557000       0.22733000       0.70576850
    92  C          0.67443000       0.72733000       0.79423150
    93  H          0.18898400       0.88388100       0.26149200
    94  H          0.31101600       0.38388100       0.23850800
    95  H          0.81101600       0.11611900       0.73850800
    96  H          0.68898400       0.61611900       0.76149200
    97  C          0.08683000       0.60106000       0.28599140
    98  C          0.41317000       0.10106000       0.21400860
    99  C          0.91317000       0.39894000       0.71400860
   100  C          0.58683000       0.89894000       0.78599140
   101  H          0.04198400       0.59400200       0.24754000
   102  H          0.45801600       0.09400200       0.25246000
   103  H          0.95801600       0.40599800       0.75246000
   104  H          0.54198400       0.90599800       0.74754000
   105  C          0.06412000       0.43906000       0.33354130
   106  C          0.43588000       0.93906000       0.16645870
   107  C          0.93588000       0.56094000       0.66645870
   108  C          0.56412000       0.06094000       0.83354130
   109  H          0.00379400       0.32108700       0.32812600
   110  H          0.49620600       0.82108700       0.17187400
   111  H         -0.00379400       0.67891300       0.67187400
   112  H          0.50379400       0.17891300       0.82812600
   113  S          0.10411500       0.24613140       0.45048300
   114  S          0.39588500       0.74613140       0.04951700
   115  S          0.89588500       0.75386860       0.54951700
   116  S          0.60411500       0.25386860       0.95048300
   117  O          0.20636160       0.13324000       0.47695900
   118  O          0.29363840       0.63324000       0.02304100
   119  O          0.79363840       0.86676000       0.52304100
   120  O          0.70636160       0.36676000       0.97695900
   121  O          0.01423150       0.07854000       0.42779900
   122  O          0.48576850       0.57854000       0.07220100
   123  O          0.98576850       0.92146000       0.57220100
   124  O          0.51423150       0.42146000       0.92779900
   125  C          0.05872000       0.45176000       0.50819130
   126  C          0.44128000       0.95176000       0.99180870
   127  C          0.94128000       0.54824000       0.49180870
   128  C          0.55872000       0.04824000       0.00819130
   129  H          0.06285900       0.35586200       0.54760000
   130  H          0.43714100       0.85586200       0.95240000
   131  H          0.93714100       0.64413800       0.45240000
   132  H          0.56285900       0.14413800       0.04760000
   133  H          0.10922400       0.60202200       0.51421400
   134  H          0.39077600       0.10202200       0.98578600
   135  H          0.89077600       0.39797800       0.48578600
   136  H          0.60922400       0.89797800       0.01421400
