data_FAHNOR
_symmetry_space_group_name_H-M    'P1'
_symmetry_Int_Tables_number       1
loop_
_symmetry_equiv_pos_site_id
_symmetry_equiv_pos_as_xyz
1 x,y,z
_cell_length_a                   8.5182
_cell_length_b                   10.1872
_cell_length_c                   9.0842
_cell_angle_alpha                90.0
_cell_angle_beta                 115.991
_cell_angle_gamma                90.0
loop_
_atom_site_label
_atom_site_type_symbol
_atom_site_fract_x
_atom_site_fract_y
_atom_site_fract_z
     1  S          0.16487400       0.10454300       0.22589400
     2  S          0.33512600       0.60454300       0.27410600
     3  S          0.83512600       0.89545700       0.77410600
     4  S          0.66487400       0.39545700       0.72589400
     5  O          0.22166140       0.05339110       0.38860110
     6  O          0.27833860       0.55339110       0.11139890
     7  O          0.77833860       0.94660890       0.61139890
     8  O          0.72166140       0.44660890       0.88860110
     9  O          0.06176140       0.22226100       0.18140150
    10  O          0.43823860       0.72226100       0.31859850
    11  O          0.93823860       0.77773900       0.81859850
    12  O          0.56176140       0.27773900       0.68140150
    13  C          0.04055170       0.97774870       0.08859150
    14  C          0.45944830       0.47774870       0.41140850
    15  C          0.95944830       0.02225130       0.91140850
    16  C          0.54055170       0.52225130       0.58859150
    17  C          0.34733150       0.12743110       0.18511140
    18  C          0.15266850       0.62743110       0.31488860
    19  C          0.65266850       0.87256890       0.81488860
    20  C          0.84733150       0.37256890       0.68511140
    21  C          0.34771190       0.23142140       0.08738180
    22  C          0.15228810       0.73142140       0.41261820
    23  C          0.65228810       0.76857860       0.91261820
    24  C          0.84771190       0.26857860       0.58738180
    25  C          0.49287210       0.25096170       0.05868210
    26  C          0.00712790       0.75096170       0.44131790
    27  C          0.50712790       0.74903830       0.94131790
    28  C         -0.00712790       0.24903830       0.55868210
    29  C          0.63347200       0.16759200       0.12686210
    30  C          0.86652800       0.66759200       0.37313790
    31  C          0.36652800       0.83240800       0.87313790
    32  C          0.13347200       0.33240800       0.62686210
    33  C          0.63097200       0.06360190       0.22240210
    34  C          0.86902800       0.56360190       0.27759790
    35  C          0.36902800       0.93639810       0.77759790
    36  C          0.13097200       0.43639810       0.72240210
    37  C          0.48811180       0.04219140       0.25399170
    38  C          0.01188820       0.54219140       0.24600830
    39  C          0.51188820       0.95780860       0.74600830
    40  C         -0.01188820       0.45780860       0.75399170
    41  H          0.95080000       0.95790000       0.12420000
    42  H          0.54920000       0.45790000       0.37580000
    43  H          0.04920000       0.04210000       0.87580000
    44  H          0.45080000       0.54210000       0.62420000
    45  H          0.11520000       0.90590000       0.10820000
    46  H          0.38480000       0.40590000       0.39180000
    47  H          0.88480000       0.09410000       0.89180000
    48  H          0.61520000       0.59410000       0.60820000
    49  H          0.25720000       0.28420000       0.04220000
    50  H          0.24280000       0.78420000       0.45780000
    51  H          0.74280000       0.71580000       0.95780000
    52  H          0.75720000       0.21580000       0.54220000
    53  H          0.49120000       0.31920000      -0.00830000
    54  H          0.00880000       0.81920000       0.50830000
    55  H          0.50880000       0.68080000       0.00830000
    56  H         -0.00880000       0.18080000       0.49170000
    57  H          0.72730000       0.18820000       0.11020000
    58  H          0.77270000       0.68820000       0.38980000
    59  H          0.27270000       0.81180000       0.88980000
    60  H          0.22730000       0.31180000       0.61020000
    61  H          0.72830000       0.01120000       0.27120000
    62  H          0.77170000       0.51120000       0.22880000
    63  H          0.27170000      -0.01120000       0.72880000
    64  H          0.22830000       0.48880000       0.77120000
    65  H          0.48620000       0.97180000       0.31620000
    66  H          0.01380000       0.47180000       0.18380000
    67  H          0.51380000       0.02820000       0.68380000
    68  H         -0.01380000       0.52820000       0.81620000
