data_FARPOF02
_symmetry_space_group_name_H-M    'P1'
_symmetry_Int_Tables_number       1
loop_
_symmetry_equiv_pos_site_id
_symmetry_equiv_pos_as_xyz
1 x,y,z
_cell_length_a                   5.578712
_cell_length_b                   27.6087
_cell_length_c                   16.7714
_cell_angle_alpha                90.0
_cell_angle_beta                 90.0
_cell_angle_gamma                90.0
loop_
_atom_site_label
_atom_site_type_symbol
_atom_site_fract_x
_atom_site_fract_y
_atom_site_fract_z
     1  C          0.45321600       0.41313000       0.98864000
     2  C          0.54678400       0.58687000       0.48864000
     3  C          0.04678400       0.91313000       0.48864000
     4  C          0.95321600       0.08687000       0.98864000
     5  C          0.53191300       0.36353000       0.01285000
     6  C          0.46808700       0.63647000       0.51285000
     7  C          0.96808700       0.86353000       0.51285000
     8  C          0.03191300       0.13647000       0.01285000
     9  C          0.71881500       0.35503000       0.05995000
    10  C          0.28118500       0.64497000       0.55995000
    11  C          0.78118500       0.85503000       0.55995000
    12  C          0.21881500       0.14497000       0.05995000
    13  C          0.79241400       0.30583000       0.09196000
    14  C          0.20758600       0.69417000       0.59196000
    15  C          0.70758600       0.80583000       0.59196000
    16  C          0.29241400       0.19417000       0.09196000
    17  H          0.80480000       0.30730000       0.15020000
    18  H          0.19520000       0.69270000       0.65020000
    19  H          0.69520000       0.80730000       0.65020000
    20  H          0.30480000       0.19270000       0.15020000
    21  H          0.94790000       0.29660000       0.06940000
    22  H          0.05210000       0.70340000       0.56940000
    23  H          0.55210000       0.79660000       0.56940000
    24  H          0.44790000       0.20340000       0.06940000
    25  H          0.67180000       0.28160000       0.07700000
    26  H          0.32820000       0.71840000       0.57700000
    27  H          0.82820000       0.78160000       0.57700000
    28  H          0.17180000       0.21840000       0.07700000
    29  C          0.87671300       0.39643000       0.08695000
    30  C          0.12328700       0.60357000       0.58695000
    31  C          0.62328700       0.89643000       0.58695000
    32  C          0.37671300       0.10357000       0.08695000
    33  C          0.79921400       0.44623000       0.06825000
    34  C          0.20078600       0.55377000       0.56825000
    35  C          0.70078600       0.94623000       0.56825000
    36  C          0.29921400       0.05377000       0.06825000
    37  C          0.59671300       0.45443000       0.02245000
    38  C          0.40328700       0.54557000       0.52245000
    39  C          0.90328700       0.95443000       0.52245000
    40  C          0.09671300       0.04557000       0.02245000
    41  O          0.28051100       0.41972000       0.94553000
    42  O          0.71948900       0.58028000       0.44553000
    43  O          0.21948900       0.91972000       0.44553000
    44  O          0.78051100       0.08028000       0.94553000
    45  O          0.06221000       0.38762000       0.12114000
    46  O          0.93779000       0.61238000       0.62114000
    47  O          0.43779000       0.88762000       0.62114000
    48  O          0.56221000       0.11238000       0.12114000
    49  S          0.85204000       0.31307800       0.35866110
    50  S          0.14796000       0.68692200       0.85866110
    51  S          0.64796000       0.81307800       0.85866110
    52  S          0.35204000       0.18692200       0.35866110
    53  C          0.93361500       0.48573000       0.09585000
    54  C          0.06638500       0.51427000       0.59585000
    55  C          0.56638500       0.98573000       0.59585000
    56  C          0.43361500       0.01427000       0.09585000
    57  H          0.07420000       0.47990000       0.12630000
    58  H          0.92580000       0.52010000       0.62630000
    59  H          0.42580000       0.97990000       0.62630000
    60  H          0.57420000       0.02010000       0.12630000
    61  C          0.86681400       0.53243000       0.07995000
    62  C          0.13318600       0.46757000       0.57995000
    63  C          0.63318600       0.03243000       0.57995000
    64  C          0.36681400       0.96757000       0.07995000
    65  H          0.95790000       0.55890000       0.09950000
    66  H          0.04210000       0.44110000       0.59950000
    67  H          0.54210000       0.05890000       0.59950000
    68  H          0.45790000       0.94110000       0.09950000
    69  C          0.65961600       0.54003000       0.03386000
    70  C          0.34038400       0.45997000       0.53386000
    71  C          0.84038400       0.04003000       0.53386000
    72  C          0.15961600       0.95997000       0.03386000
    73  H          0.61320000       0.57230000       0.02180000
    74  H          0.38680000       0.42770000       0.52180000
    75  H          0.88680000       0.07230000       0.52180000
    76  H          0.11320000       0.92770000       0.02180000
    77  C          0.51931800       0.50183000       0.00505000
    78  C          0.48068200       0.49817000       0.50505000
    79  C         -0.01931800       0.00183000       0.50505000
    80  C          0.01931800      -0.00183000       0.00505000
    81  H          0.37780000       0.50760000       0.97500000
    82  H          0.62220000       0.49240000       0.47500000
    83  H          0.12220000       0.00760000       0.47500000
    84  H          0.87780000       0.99240000       0.97500000
    85  C          0.95471400       0.41203000       0.35545000
    86  C          0.04528600       0.58797000       0.85545000
    87  C          0.54528600       0.91203000       0.85545000
    88  C          0.45471400       0.08797000       0.35545000
    89  C          0.03461500       0.36233000       0.33245000
    90  C          0.96538500       0.63767000       0.83245000
    91  C          0.46538500       0.86233000       0.83245000
    92  C          0.53461500       0.13767000       0.33245000
    93  C          0.22691400       0.35483000       0.28235000
    94  C          0.77308600       0.64517000       0.78235000
    95  C          0.27308600       0.85483000       0.78235000
    96  C          0.72691400       0.14517000       0.28235000
    97  C          0.29291700       0.30683000       0.24945000
    98  C          0.70708300       0.69317000       0.74945000
    99  C          0.20708300       0.80683000       0.74945000
   100  C          0.79291700       0.19317000       0.24945000
   101  H          0.24260000       0.28140000       0.28650000
   102  H          0.75740000       0.71860000       0.78650000
   103  H          0.25740000       0.78140000       0.78650000
   104  H          0.74260000       0.21860000       0.28650000
   105  H          0.46690000       0.30530000       0.24200000
   106  H          0.53310000       0.69470000       0.74200000
   107  H          0.03310000       0.80530000       0.74200000
   108  H          0.96690000       0.19470000       0.24200000
   109  H          0.21280000       0.30210000       0.19800000
   110  H          0.78720000       0.69790000       0.69800000
   111  H          0.28720000       0.80210000       0.69800000
   112  H          0.71280000       0.19790000       0.19800000
   113  C          0.37711400       0.39633000       0.25625000
   114  C          0.62288600       0.60367000       0.75625000
   115  C          0.12288600       0.89633000       0.75625000
   116  C          0.87711400       0.10367000       0.25625000
   117  C          0.30531500       0.44673000       0.27975000
   118  C          0.69468500       0.55327000       0.77975000
   119  C          0.19468500       0.94673000       0.77975000
   120  C          0.80531500       0.05327000       0.27975000
   121  C          0.09801300       0.45343000       0.32485000
   122  C          0.90198700       0.54657000       0.82485000
   123  C          0.40198700       0.95343000       0.82485000
   124  C          0.59801300       0.04657000       0.32485000
   125  O          0.77281000       0.41782000       0.39333000
   126  O          0.22719000       0.58218000       0.89333000
   127  O          0.72719000       0.91782000       0.89333000
   128  O          0.27281000       0.08218000       0.39333000
   129  O          0.56161000       0.38902000       0.22003000
   130  O          0.43839000       0.61098000       0.72003000
   131  O          0.93839000       0.88902000       0.72003000
   132  O          0.06161000       0.11098000       0.22003000
   133  S          0.35404000       0.31502800       0.97392120
   134  S          0.64596000       0.68497200       0.47392120
   135  S          0.14596000       0.81502800       0.47392120
   136  S          0.85404000       0.18497200       0.97392120
   137  C          0.03031400       0.50173000       0.34415000
   138  C          0.96968600       0.49827000       0.84415000
   139  C          0.46968600       0.00173000       0.84415000
   140  C          0.53031400      -0.00173000       0.34415000
   141  H          0.89340000       0.50720000       0.37650000
   142  H          0.10660000       0.49280000       0.87650000
   143  H          0.60660000       0.00720000       0.87650000
   144  H          0.39340000       0.99280000       0.37650000
   145  C          0.15881400       0.54004000       0.31686000
   146  C          0.84118600       0.45996000       0.81686000
   147  C          0.34118600       0.04004000       0.81686000
   148  C          0.65881400       0.95996000       0.31686000
   149  H          0.10590000       0.57200000       0.32780000
   150  H          0.89410000       0.42800000       0.82780000
   151  H          0.39410000       0.07200000       0.82780000
   152  H          0.60590000       0.92800000       0.32780000
   153  C          0.36481600       0.53293000       0.27325000
   154  C          0.63518400       0.46707000       0.77325000
   155  C          0.13518400       0.03293000       0.77325000
   156  C          0.86481600       0.96707000       0.27325000
   157  H          0.45450000       0.56010000       0.25530000
   158  H          0.54550000       0.43990000       0.75530000
   159  H          0.04550000       0.06010000       0.75530000
   160  H          0.95450000       0.93990000       0.25530000
   161  C          0.44461600       0.48513000       0.25495000
   162  C          0.55538400       0.51487000       0.75495000
   163  C          0.05538400       0.98513000       0.75495000
   164  C          0.94461600       0.01487000       0.25495000
   165  H          0.58950000       0.47990000       0.22640000
   166  H          0.41050000       0.52010000       0.72640000
   167  H          0.91050000       0.97990000       0.72640000
   168  H          0.08950000       0.02010000       0.22640000
   169  C          0.44481400       0.31703000       0.87014000
   170  C          0.55518600       0.68297000       0.37014000
   171  C          0.05518600       0.81703000       0.37014000
   172  C          0.94481400       0.18297000       0.87014000
   173  C          0.66351300       0.33612000       0.84754000
   174  C          0.33648700       0.66388000       0.34754000
   175  C          0.83648700       0.83612000       0.34754000
   176  C          0.16351300       0.16388000       0.84754000
   177  H          0.77170000       0.34830000       0.88630000
   178  H          0.22830000       0.65170000       0.38630000
   179  H          0.72830000       0.84830000       0.38630000
   180  H          0.27170000       0.15170000       0.88630000
   181  C          0.72381300       0.33723000       0.76554000
   182  C          0.27618700       0.66277000       0.26554000
   183  C          0.77618700       0.83723000       0.26554000
   184  C          0.22381300       0.16277000       0.76554000
   185  H          0.87180000       0.35120000       0.74960000
   186  H          0.12820000       0.64880000       0.24960000
   187  H          0.62820000       0.85120000       0.24960000
   188  H          0.37180000       0.14880000       0.74960000
   189  C          0.57091300       0.31833000       0.70724000
   190  C          0.42908700       0.68167000       0.20724000
   191  C          0.92908700       0.81833000       0.20724000
   192  C          0.07091300       0.18167000       0.70724000
   193  C          0.35731200       0.29883000       0.73434000
   194  C          0.64268800       0.70117000       0.23434000
   195  C          0.14268800       0.79883000       0.23434000
   196  C          0.85731200       0.20117000       0.73434000
   197  H          0.24800000       0.28590000       0.69650000
   198  H          0.75200000       0.71410000       0.19650000
   199  H          0.25200000       0.78590000       0.19650000
   200  H          0.74800000       0.21410000       0.69650000
   201  C          0.29691400       0.29753000       0.81385000
   202  C          0.70308600       0.70247000       0.31385000
   203  C          0.20308600       0.79753000       0.31385000
   204  C          0.79691400       0.20247000       0.81385000
   205  H          0.15030000       0.28290000       0.82970000
   206  H          0.84970000       0.71710000       0.32970000
   207  H          0.34970000       0.78290000       0.32970000
   208  H          0.65030000       0.21710000       0.82970000
   209  C          0.77191500       0.31943000       0.45774000
   210  C          0.22808500       0.68057000       0.95774000
   211  C          0.72808500       0.81943000       0.95774000
   212  C          0.27191500       0.18057000       0.45774000
   213  C          0.55931400       0.29873000       0.48175000
   214  C          0.44068600       0.70127000       0.98175000
   215  C          0.94068600       0.79873000       0.98175000
   216  C          0.05931400       0.20127000       0.48175000
   217  H          0.45450000       0.28540000       0.44290000
   218  H          0.54550000       0.71460000       0.94290000
   219  H          0.04550000       0.78540000       0.94290000
   220  H          0.95450000       0.21460000       0.44290000
   221  C          0.49421400       0.29693000       0.56285000
   222  C          0.50578600       0.70307000       0.06285000
   223  C          0.00578600       0.79693000       0.06285000
   224  C         -0.00578600       0.20307000       0.56285000
   225  H          0.35040000       0.28110000       0.57840000
   226  H          0.64960000       0.71890000       0.07840000
   227  H          0.14960000       0.78110000       0.07840000
   228  H          0.85040000       0.21890000       0.57840000
   229  C          0.64261300       0.31872000       0.62124000
   230  C          0.35738700       0.68128000       0.12124000
   231  C          0.85738700       0.81872000       0.12124000
   232  C          0.14261300       0.18128000       0.62124000
   233  C          0.85061400       0.34043000       0.59505000
   234  C          0.14938600       0.65957000       0.09505000
   235  C          0.64938600       0.84043000       0.09505000
   236  C          0.35061400       0.15957000       0.59505000
   237  H          0.95070000       0.35610000       0.63290000
   238  H          0.04930000       0.64390000       0.13290000
   239  H          0.54930000       0.85610000       0.13290000
   240  H          0.45070000       0.14390000       0.63290000
   241  C          0.92051400       0.34043000       0.51465000
   242  C          0.07948600       0.65957000       0.01465000
   243  C          0.57948600       0.84043000       0.01465000
   244  C          0.42051400       0.15957000       0.51465000
   245  H          0.06860000       0.35460000       0.49920000
   246  H          0.93140000       0.64540000      -0.00080000
   247  H          0.43140000       0.85460000      -0.00080000
   248  H          0.56860000       0.14540000       0.49920000
