data_FARPOF
_symmetry_space_group_name_H-M    'P1'
_symmetry_Int_Tables_number       1
loop_
_symmetry_equiv_pos_site_id
_symmetry_equiv_pos_as_xyz
1 x,y,z
_cell_length_a                   6.8692
_cell_length_b                   12.2055
_cell_length_c                   15.6615
_cell_angle_alpha                88.6089
_cell_angle_beta                 78.8671
_cell_angle_gamma                85.6178
loop_
_atom_site_label
_atom_site_type_symbol
_atom_site_fract_x
_atom_site_fract_y
_atom_site_fract_z
     1  S          0.32282900       0.10896500      -0.00685600
     2  S          0.67717100       0.89103500       0.00685600
     3  S          0.13787100       0.88309500       0.49862400
     4  S          0.86212900       0.11690500       0.50137600
     5  C          0.33673000       0.43485180       0.92308140
     6  C          0.66327000       0.56514820       0.07691860
     7  O          0.38832000       0.48818130       0.85687100
     8  O          0.61168000       0.51181870       0.14312900
     9  C          0.34303000       0.31213170       0.92018140
    10  C          0.65697000       0.68786830       0.07981860
    11  C          0.30233000       0.25306170      -0.00424850
    12  C          0.69767000       0.74693830       0.00424850
    13  C          0.26873000       0.30760180       0.08260150
    14  C          0.73127000       0.69239820       0.91739850
    15  O          0.29213000       0.25641130       0.14791110
    16  O          0.70787000       0.74358870       0.85208890
    17  C          0.13193000       0.47868190       0.16340150
    18  C          0.86807000       0.52131810       0.83659850
    19  H          0.10000000       0.43610000       0.21510000
    20  H          0.90000000       0.56390000       0.78490000
    21  C          0.09653000       0.59290190       0.16510160
    22  C          0.90347000       0.40709810       0.83489840
    23  H          0.03890000       0.62840000       0.21830000
    24  H          0.96110000       0.37160000       0.78170000
    25  C          0.14503000       0.65480180       0.08966150
    26  C          0.85497000       0.34519820       0.91033850
    27  H          0.12330000       0.73260000       0.09190000
    28  H          0.87670000       0.26740000       0.90810000
    29  C          0.22553000       0.60398180       0.01031150
    30  C          0.77447000       0.39601820       0.98968850
    31  H          0.25820000       0.64670000       0.95870000
    32  H          0.74180000       0.35330000       0.04130000
    33  C          0.25713000       0.48964170       0.00792140
    34  C          0.74287000       0.51035830      -0.00792140
    35  C          0.21523000       0.42799170       0.08418140
    36  C          0.78477000       0.57200830       0.91581860
    37  C          0.39564000       0.26283190       0.83155150
    38  C          0.60436000       0.73716810       0.16844850
    39  H          0.54060000       0.25610000       0.81280000
    40  H          0.45940000       0.74390000       0.18720000
    41  H          0.33660000       0.31020000       0.79040000
    42  H          0.66340000       0.68980000       0.20960000
    43  H          0.34420000       0.18990000       0.83330000
    44  H          0.65580000       0.81010000       0.16670000
    45  C          0.12303000       0.07371170       0.07684150
    46  C          0.87697000       0.92628830       0.92315850
    47  C          0.14694000       0.98255820       0.12885160
    48  C          0.85306000       0.01744180       0.87114840
    49  H          0.27010000       0.93940000       0.11960000
    50  H          0.72990000       0.06060000       0.88040000
    51  C         -0.00823000       0.95329810       0.19488160
    52  C          0.00823000       0.04670190       0.80511840
    53  H          0.00950000       0.88920000       0.22900000
    54  H         -0.00950000       0.11080000       0.77100000
    55  C          0.81027000       0.01697170       0.21163150
    56  C          0.18973000       0.98302830       0.78836850
    57  C          0.78706000       0.10761190       0.15761160
    58  C          0.21294000       0.89238810       0.84238840
    59  H          0.66480000       0.15150000       0.16710000
    60  H          0.33520000       0.84850000       0.83290000
    61  C          0.93996000       0.13512000       0.08995160
    62  C          0.06004000       0.86488000       0.91004840
    63  H          0.91950000       0.19580000       0.05270000
    64  H          0.08050000       0.80420000       0.94730000
    65  C          0.17717000       0.55941820       0.57574140
    66  C          0.82283000       0.44058180       0.42425860
    67  O          0.13687000       0.50793860       0.64434110
    68  O          0.86313000       0.49206140       0.35565890
    69  C          0.15867000       0.68316820       0.57592140
    70  C          0.84133000       0.31683180       0.42407860
    71  C          0.18347000       0.73903820       0.49949150
    72  C          0.81653000       0.26096180       0.50050850
    73  C          0.22057000       0.68241820       0.41337140
    74  C          0.77943000       0.31758180       0.58662860
    75  O          0.19817000       0.73115860       0.34680110
    76  O          0.80183000       0.26884140       0.65319890
    77  C          0.35427000       0.50898810       0.33476150
    78  C          0.64573000       0.49101190       0.66523850
    79  H          0.37890000       0.55020000       0.28200000
    80  H          0.62110000       0.44980000       0.71800000
    81  C          0.39326000       0.39588000       0.33344160
    82  C          0.60674000       0.60412000       0.66655840
    83  H          0.44500000       0.35970000       0.27990000
    84  H          0.55500000       0.64030000       0.72010000
    85  C          0.35656000       0.33528000       0.41067160
    86  C          0.64344000       0.66472000       0.58932840
    87  H          0.38010000       0.25760000       0.40930000
    88  H          0.61990000       0.74240000       0.59070000
    89  C          0.28557000       0.38798810       0.49028160
    90  C          0.71443000       0.61201190       0.50971840
    91  H          0.26280000       0.34660000       0.54300000
    92  H          0.73720000       0.65340000       0.45700000
    93  C          0.24867000       0.50213820       0.49127140
    94  C          0.75133000       0.49786180       0.50872860
    95  C          0.27897000       0.56239820       0.41310140
    96  C          0.72103000       0.43760180       0.58689860
    97  C          0.11036000       0.73488000       0.66398150
    98  C          0.88964000       0.26512000       0.33601850
    99  H          0.16620000       0.80670000       0.66090000
   100  H          0.83380000       0.19330000       0.33910000
   101  H          0.16770000       0.68740000       0.70560000
   102  H          0.83230000       0.31260000       0.29440000
   103  H          0.96570000       0.74430000       0.68310000
   104  H          0.03430000       0.25570000       0.31690000
   105  C          0.33497000       0.92381820       0.41596150
   106  C          0.66503000       0.07618180       0.58403850
   107  C          0.29346000      -0.00782190       0.34834160
   108  C          0.70654000       0.00782190       0.65165840
   109  H          0.15990000       0.01690000       0.34640000
   110  H          0.84010000       0.98310000       0.65360000
   111  C          0.44836000       0.02436190       0.28341160
   112  C          0.55164000       0.97563810       0.71658840
   113  H          0.41920000       0.07210000       0.23800000
   114  H          0.58080000       0.92790000       0.76200000
   115  C          0.64687000       0.98738830       0.28412140
   116  C          0.35313000       0.01261170       0.71587860
   117  C          0.68516000       0.92128000       0.35362170
   118  C          0.31484000       0.07872000       0.64637830
   119  H          0.81860000       0.89680000       0.35610000
   120  H          0.18140000       0.10320000       0.64390000
   121  C          0.53216000       0.89078000       0.41926160
   122  C          0.46784000       0.10922000       0.58073840
   123  H          0.56200000       0.84700000       0.46670000
   124  H          0.43800000       0.15300000       0.53330000
