data_FARPOF01
_symmetry_space_group_name_H-M    'P1'
_symmetry_Int_Tables_number       1
loop_
_symmetry_equiv_pos_site_id
_symmetry_equiv_pos_as_xyz
1 x,y,z
_cell_length_a                   20.5856
_cell_length_b                   5.238216
_cell_length_c                   12.4414
_cell_angle_alpha                90.0
_cell_angle_beta                 90.4714
_cell_angle_gamma                90.0
loop_
_atom_site_label
_atom_site_type_symbol
_atom_site_fract_x
_atom_site_fract_y
_atom_site_fract_z
     1  S          0.34618300       0.11585150       0.65717600
     2  S          0.65381700       0.61585150       0.84282400
     3  S          0.65381700       0.88414850       0.34282400
     4  S          0.34618300       0.38414850       0.15717600
     5  C          0.16115150       0.83674000       0.68092000
     6  C          0.83884850       0.33674000       0.81908000
     7  C          0.83884850       0.16326000       0.31908000
     8  C          0.16115150       0.66326000       0.18092000
     9  O          0.12828150       0.67773000       0.63363000
    10  O          0.87171850       0.17773000       0.86637000
    11  O          0.87171850       0.32227000       0.36637000
    12  O          0.12828150       0.82227000       0.13363000
    13  C          0.23008140       0.87405000       0.64882000
    14  C          0.76991860       0.37405000       0.85118000
    15  C          0.76991860       0.12595000       0.35118000
    16  C          0.23008140       0.62595000       0.14882000
    17  C          0.26628110       0.05145000       0.70012000
    18  C          0.73371890       0.55145000       0.79988000
    19  C          0.73371890       0.94855000       0.29988000
    20  C          0.26628110       0.44855000       0.20012000
    21  C          0.23922110       0.22035000       0.78482000
    22  C          0.76077890       0.72035000       0.71518000
    23  C          0.76077890       0.77965000       0.21518000
    24  C          0.23922110       0.27965000       0.28482000
    25  O          0.27029100       0.39404000       0.82272000
    26  O          0.72970900       0.89404000       0.67728000
    27  O          0.72970900       0.60596000       0.17728000
    28  O          0.27029100       0.10596000       0.32272000
    29  C          0.14498150       0.31947000       0.90203000
    30  C          0.85501850       0.81947000       0.59797000
    31  C          0.85501850       0.68053000       0.09797000
    32  C          0.14498150       0.18053000       0.40203000
    33  H          0.17000000       0.44400000       0.93580000
    34  H          0.83000000       0.94400000       0.56420000
    35  H          0.83000000       0.55600000       0.06420000
    36  H          0.17000000       0.05600000       0.43580000
    37  C          0.08125160       0.27879000       0.93283000
    38  C          0.91874840       0.77879000       0.56717000
    39  C          0.91874840       0.72121000       0.06717000
    40  C          0.08125160       0.22121000       0.43283000
    41  H          0.06380000       0.37440000       0.98850000
    42  H          0.93620000       0.87440000       0.51150000
    43  H          0.93620000       0.62560000       0.01150000
    44  H          0.06380000       0.12560000       0.48850000
    45  C          0.04401150       0.09919000       0.88203000
    46  C          0.95598850       0.59919000       0.61797000
    47  C          0.95598850       0.90081000       0.11797000
    48  C          0.04401150       0.40081000       0.38203000
    49  H          0.00110000       0.07600000       0.90250000
    50  H         -0.00110000       0.57600000       0.59750000
    51  H         -0.00110000       0.92400000       0.09750000
    52  H          0.00110000       0.42400000       0.40250000
    53  C          0.06903150       0.95412000       0.80213000
    54  C          0.93096850       0.45412000       0.69787000
    55  C          0.93096850       0.04588000       0.19787000
    56  C          0.06903150       0.54588000       0.30213000
    57  H          0.04340000       0.83070000       0.76870000
    58  H          0.95660000       0.33070000       0.73130000
    59  H          0.95660000       0.16930000       0.23130000
    60  H          0.04340000       0.66930000       0.26870000
    61  C          0.13383120      -0.00956000       0.76942000
    62  C          0.86616880       0.49044000       0.73058000
    63  C          0.86616880       0.00956000       0.23058000
    64  C          0.13383120       0.50956000       0.26942000
    65  C          0.17101110       0.17285000       0.82032000
    66  C          0.82898890       0.67285000       0.67968000
    67  C          0.82898890       0.82715000       0.17968000
    68  C          0.17101110       0.32715000       0.32032000
    69  C          0.25530180       0.70583000       0.56103000
    70  C          0.74469820       0.20583000       0.93897000
    71  C          0.74469820       0.29417000       0.43897000
    72  C          0.25530180       0.79417000       0.06103000
    73  H          0.25520000       0.79860000       0.49440000
    74  H          0.74480000       0.29860000       0.00560000
    75  H          0.74480000       0.20140000       0.50560000
    76  H          0.25520000       0.70140000      -0.00560000
    77  H          0.22800000       0.55820000       0.55410000
    78  H          0.77200000       0.05820000       0.94590000
    79  H          0.77200000       0.44180000       0.44590000
    80  H          0.22800000       0.94180000       0.05410000
    81  H          0.29880000       0.65330000       0.57830000
    82  H          0.70120000       0.15330000       0.92170000
    83  H          0.70120000       0.34670000       0.42170000
    84  H          0.29880000       0.84670000       0.07830000
    85  C          0.39233110       0.08524000       0.77792000
    86  C          0.60766890       0.58524000       0.72208000
    87  C          0.60766890       0.91476000       0.22208000
    88  C          0.39233110       0.41476000       0.27792000
    89  C          0.44235140       0.25395000       0.79642000
    90  C          0.55764860       0.75395000       0.70358000
    91  C          0.55764860       0.74605000       0.20358000
    92  C          0.44235140       0.24605000       0.29642000
    93  H          0.44830000       0.39110000       0.75010000
    94  H          0.55170000       0.89110000       0.74990000
    95  H          0.55170000       0.60890000       0.24990000
    96  H          0.44830000       0.10890000       0.25010000
    97  C          0.48386130       0.22155000       0.88302000
    98  C          0.51613870       0.72155000       0.61698000
    99  C          0.51613870       0.77845000       0.11698000
   100  C          0.48386130       0.27845000       0.38302000
   101  H          0.51730000       0.33820000       0.89390000
   102  H          0.48270000       0.83820000       0.60610000
   103  H          0.48270000       0.66180000       0.10610000
   104  H          0.51730000       0.16180000       0.39390000
   105  C          0.47715100       0.01944000       0.95462180
   106  C          0.52284900       0.51944000       0.54537820
   107  C          0.52284900      -0.01944000       0.04537820
   108  C          0.47715100       0.48056000       0.45462180
   109  C          0.42524130       0.85485000       0.93423000
   110  C          0.57475870       0.35485000       0.56577000
   111  C          0.57475870       0.14515000       0.06577000
   112  C          0.42524130       0.64515000       0.43423000
   113  H          0.41810000       0.72000000       0.98130000
   114  H          0.58190000       0.22000000       0.51870000
   115  H          0.58190000       0.28000000       0.01870000
   116  H          0.41810000       0.78000000       0.48130000
   117  C          0.38416140       0.88325000       0.84753000
   118  C          0.61583860       0.38325000       0.65247000
   119  C          0.61583860       0.11675000       0.15247000
   120  C          0.38416140       0.61675000       0.34753000
   121  H          0.35090000       0.76640000       0.83570000
   122  H          0.64910000       0.26640000       0.66430000
   123  H          0.64910000       0.23360000       0.16430000
   124  H          0.35090000       0.73360000       0.33570000
