data_FARRUM06
_symmetry_space_group_name_H-M    'P1'
_symmetry_Int_Tables_number       1
loop_
_symmetry_equiv_pos_site_id
_symmetry_equiv_pos_as_xyz
1 x,y,z
_cell_length_a                   9.1556114
_cell_length_b                   9.5502012
_cell_length_c                   12.54952
_cell_angle_alpha                93.732212
_cell_angle_beta                 95.591513
_cell_angle_gamma                100.832112
loop_
_atom_site_label
_atom_site_type_symbol
_atom_site_fract_x
_atom_site_fract_y
_atom_site_fract_z
     1  Cl         0.84493300       0.85179600       0.93033500
     2  Cl         0.15506700       0.14820400       0.06966500
     3  F          0.97574890       0.63929100       0.81973800
     4  F          0.02425110       0.36070900       0.18026200
     5  O          0.36226130       0.20123100       0.66363800
     6  O          0.63773870       0.79876900       0.33636200
     7  O          0.74609120       0.44994120       0.14091800
     8  O          0.25390880       0.55005880       0.85908200
     9  O          0.43561140       0.15020120       0.47805800
    10  O          0.56438860       0.84979880       0.52194200
    11  N          0.14615160       0.70243140       0.46677100
    12  N          0.85384840       0.29756860       0.53322900
    13  N          0.26424160       0.56120150       0.34979100
    14  N          0.73575840       0.43879850       0.65020900
    15  N          0.11707140       0.65288130       0.64295900
    16  N          0.88292860       0.34711870       0.35704100
    17  H          0.12662600       0.59328200       0.69044900
    18  H          0.87337400       0.40671800       0.30955100
    19  N          0.59702130       0.28791120       0.94929900
    20  N          0.40297870       0.71208880       0.05070100
    21  C          0.16537150       0.62044140       0.54579110
    22  C          0.83462850       0.37955860       0.45420890
    23  C          0.19792000       0.66655190       0.37397130
    24  C          0.80208000       0.33344810       0.62602870
    25  H          0.18427800       0.72549300       0.31919300
    26  H          0.81572200       0.27450700       0.68080700
    27  C          0.28255150       0.47455150       0.43074110
    28  C          0.71744850       0.52544850       0.56925890
    29  C          0.35099160       0.35621150       0.41014110
    30  C          0.64900840       0.64378850       0.58985890
    31  H          0.38123400       0.33895500       0.34269200
    32  H          0.61876600       0.66104500       0.65730800
    33  C          0.37308160       0.26734150       0.48790110
    34  C          0.62691840       0.73265850       0.51209890
    35  C          0.32947150       0.29498140       0.59256100
    36  C          0.67052850       0.70501860       0.40743900
    37  C          0.26085150       0.40722140       0.61324100
    38  C          0.73914850       0.59277860       0.38675900
    39  H          0.23051000       0.42322300       0.68083100
    40  H          0.76949000       0.57677700       0.31916900
    41  C          0.23547140       0.49954140       0.53256100
    42  C          0.76452860       0.50045860       0.46743900
    43  C          0.05443150       0.76946140       0.67552110
    44  C          0.94556850       0.23053860       0.32447890
    45  C         -0.01517150       0.76039150       0.76908120
    46  C          0.01517150       0.23960850       0.23091880
    47  C          0.92543820       0.87052180       0.81165140
    48  C          0.07456180       0.12947820       0.18834860
    49  C          0.92958000      -0.00626820       0.75978150
    50  C          0.07042000       0.00626820       0.24021850
    51  H          0.88836200       0.06824400       0.78755100
    52  H          0.11163800       0.93175600       0.21244900
    53  C         -0.00412000       0.00442170       0.66623140
    54  C          0.00412000      -0.00442170       0.33376860
    55  H         -0.00207400       0.08674300       0.63023100
    56  H          0.00207400       0.91325700       0.36976900
    57  C          0.05960190       0.89565160       0.62437120
    58  C          0.94039810       0.10434840       0.37562880
    59  H          0.10606700       0.90653800       0.56192100
    60  H          0.89393300       0.09346200       0.43807900
    61  C          0.33073180       0.22639150       0.77204110
    62  C          0.66926820       0.77360850       0.22795890
    63  H          0.22358800       0.21221500       0.77529600
    64  H          0.77641200       0.78778500       0.22470400
    65  H          0.37573900       0.32351200       0.80029500
    66  H          0.62426100       0.67648800       0.19970500
    67  C          0.39693180       0.12018150       0.83589110
    68  C          0.60306820       0.87981850       0.16410890
    69  H          0.37767700       0.02834500       0.79396200
    70  H          0.62232300       0.97165500       0.20603800
    71  H          0.34856300       0.10764300       0.90097500
    72  H          0.65143700       0.89235700       0.09902500
    73  C          0.56397180       0.16908160       0.86543120
    74  C          0.43602820       0.83091840       0.13456880
    75  H          0.60631900       0.08976500       0.89051400
    76  H          0.39368100       0.91023500       0.10948600
    77  H          0.61020400       0.19899300       0.80215300
    78  H          0.38979600       0.80100700       0.19784700
    79  C          0.74757190       0.37191190       0.95247130
    80  C          0.25242810       0.62808810       0.04752870
    81  H          0.76195400       0.40786200       0.88294400
    82  H          0.23804600       0.59213800       0.11705600
    83  H          0.82016500       0.31195400       0.96823500
    84  H          0.17983500       0.68804600       0.03176500
    85  C          0.77142000       0.49555180       0.03753140
    86  C          0.22858000       0.50444820       0.96246860
    87  H          0.87318300       0.54883900       0.04038700
    88  H          0.12681700       0.45116100       0.95961300
    89  H          0.70424600       0.55933100       0.01791700
    90  H          0.29575400       0.44066900       0.98208300
    91  C          0.59996190       0.36642000       0.13694120
    92  C          0.40003810       0.63358000       0.86305880
    93  H          0.52684800       0.42477800       0.11822400
    94  H          0.47315200       0.57522200       0.88177600
    95  H          0.58415500       0.33365800       0.20724500
    96  H          0.41584500       0.66634200       0.79275500
    97  C          0.57792000       0.23952180       0.05566120
    98  C          0.42208000       0.76047820       0.94433880
    99  H          0.65008300       0.18020600       0.07456700
   100  H          0.34991700       0.81979400       0.92543300
   101  H          0.47837000       0.18244000       0.05545300
   102  H          0.52163000       0.81756000       0.94454700
   103  C          0.48062000       0.11217190       0.37654130
   104  C          0.51938000       0.88782810       0.62345870
   105  H          0.39628200       0.09850400       0.32250200
   106  H          0.60371800       0.90149600       0.67749800
   107  H          0.51827200       0.02508300       0.37967500
   108  H          0.48172800       0.97491700       0.62032500
   109  H          0.55765600       0.18726100       0.35892500
   110  H          0.44234400       0.81273900       0.64107500
