data_FARRUM
_symmetry_space_group_name_H-M    'P1'
_symmetry_Int_Tables_number       1
loop_
_symmetry_equiv_pos_site_id
_symmetry_equiv_pos_as_xyz
1 x,y,z
_cell_length_a                   8.9281
_cell_length_b                   9.7172
_cell_length_c                   12.6042
_cell_angle_alpha                93.311
_cell_angle_beta                 97.121
_cell_angle_gamma                101.471
loop_
_atom_site_label
_atom_site_type_symbol
_atom_site_fract_x
_atom_site_fract_y
_atom_site_fract_z
     1  Cl         0.36291000       0.84081000       0.42263800
     2  Cl         0.63709000       0.15919000       0.57736200
     3  F          0.39212000       0.08652000       0.29701000
     4  F          0.60788000       0.91348000       0.70299000
     5  O          0.86522000       0.20342000       0.16111000
     6  O          0.13478000       0.79658000       0.83889000
     7  O          0.25482000       0.44962000       0.64821000
     8  O          0.74518000       0.55038000       0.35179000
     9  O          0.93102000       0.14472000       0.97479000
    10  O          0.06898000       0.85528000       0.02521000
    11  N          0.62922000       0.65032000       0.13251000
    12  N          0.37078000       0.34968000       0.86749000
    13  N          0.75753000       0.54802000       0.83828000
    14  N          0.24247000       0.45198000       0.16172000
    15  N          0.65043000       0.69552000       0.95518000
    16  N          0.34957000       0.30448000       0.04482000
    17  N          0.09862000       0.29002000       0.45481000
    18  N          0.90138000       0.70998000       0.54519000
    19  C          0.69433000       0.65483000       0.86148000
    20  C          0.30567000       0.34517000       0.13852000
    21  C          0.67193000       0.61623000       0.03522000
    22  C          0.32807000       0.38377000       0.96478000
    23  C          0.76673000       0.40673000       0.10572000
    24  C          0.23327000       0.59327000       0.89428000
    25  C          0.83193000       0.29343000       0.08702000
    26  C          0.16807000       0.70657000       0.91298000
    27  C          0.87143000       0.26283000       0.98288000
    28  C          0.12857000       0.73717000       0.01712000
    29  C          0.84703000       0.34703000       0.90318000
    30  C          0.15297000       0.65297000       0.09682000
    31  C          0.73923000       0.49483000       0.02322000
    32  C          0.26077000       0.50517000       0.97678000
    33  C          0.78083000       0.46613000       0.92168000
    34  C          0.21917000       0.53387000       0.07832000
    35  C          0.56763000       0.76413000       0.16732000
    36  C          0.43237000       0.23587000       0.83268000
    37  C          0.50313000       0.75093000       0.26232000
    38  C          0.49687000       0.24907000       0.73768000
    39  C          0.44433000       0.85873000       0.30512000
    40  C          0.55567000       0.14127000       0.69488000
    41  C          0.44833000       0.98003000       0.25372000
    42  C          0.55167000       0.01997000       0.74628000
    43  C          0.50973000      -0.00547000       0.15942000
    44  C          0.49027000       0.00547000       0.84058000
    45  C          0.57113000       0.88773000       0.11622000
    46  C          0.42887000       0.11227000       0.88378000
    47  C          0.83233000       0.23183000       0.26752000
    48  C          0.16767000       0.76817000       0.73248000
    49  C          0.89163000       0.12593000       0.33512000
    50  C          0.10837000       0.87407000       0.66488000
    51  C          0.06423000       0.17133000       0.37142000
    52  C          0.93577000       0.82867000       0.62858000
    53  C          0.27844000       0.49683000       0.54512000
    54  C          0.72156000       0.50317000       0.45488000
    55  C          0.25343000       0.37453000       0.46042000
    56  C          0.74657000       0.62547000       0.53958000
    57  C          0.07813000       0.24163000       0.56052000
    58  C          0.92187000       0.75837000       0.43948000
    59  C          0.10293000       0.36633000       0.64212000
    60  C          0.89707000       0.63367000       0.35788000
    61  C          0.97314000       0.10413000       0.87448000
    62  C          0.02686000       0.89587000       0.12552000
    63  H          0.63870000       0.59160000       0.18020000
    64  H          0.36130000       0.40840000       0.81980000
    65  H          0.67730000       0.71170000       0.80420000
    66  H          0.32270000       0.28830000       0.19580000
    67  H          0.73900000       0.42610000       0.17460000
    68  H          0.26100000       0.57390000       0.82540000
    69  H          0.87440000       0.32670000       0.83440000
    70  H          0.12560000       0.67330000       0.16560000
    71  H          0.49790000       0.66610000       0.29700000
    72  H          0.50210000       0.33390000       0.70300000
    73  H          0.51100000       0.07870000       0.12440000
    74  H          0.48900000       0.92130000       0.87560000
    75  H          0.61630000       0.89780000       0.05190000
    76  H          0.38370000       0.10220000       0.94810000
    77  H          0.88310000       0.32470000       0.29500000
    78  H          0.11690000       0.67530000       0.70500000
    79  H          0.72420000       0.22190000       0.26700000
    80  H          0.27580000       0.77810000       0.73300000
    81  H          0.84120000       0.11690000       0.39720000
    82  H          0.15880000       0.88310000       0.60280000
    83  H          0.87000000       0.03770000       0.29370000
    84  H          0.13000000       0.96230000       0.70630000
    85  H          0.11320000       0.19960000       0.31110000
    86  H          0.88680000       0.80040000       0.68890000
    87  H          0.10260000       0.09430000       0.39920000
    88  H          0.89740000       0.90570000       0.60080000
    89  H          0.20610000       0.55340000       0.52470000
    90  H          0.79390000       0.44660000       0.47530000
    91  H          0.38020000       0.55160000       0.55000000
    92  H          0.61980000       0.44840000       0.45000000
    93  H          0.32630000       0.31800000       0.47980000
    94  H          0.67370000       0.68200000       0.52020000
    95  H          0.26810000       0.40850000       0.39250000
    96  H          0.73190000       0.59150000       0.60750000
    97  H          0.97640000       0.18780000       0.55810000
    98  H          0.02360000       0.81220000       0.44190000
    99  H          0.15040000       0.18490000       0.58070000
   100  H          0.84960000       0.81510000       0.41930000
   101  H          0.08800000       0.33540000       0.71080000
   102  H          0.91200000       0.66460000       0.28920000
   103  H          0.03100000       0.42320000       0.62110000
   104  H          0.96900000       0.57680000       0.37890000
   105  H          0.88730000       0.04310000       0.83240000
   106  H          0.11270000       0.95690000       0.16760000
   107  H          0.05590000       0.05630000       0.88660000
   108  H          0.94410000       0.94370000       0.11340000
   109  H          0.00460000       0.18530000       0.83770000
   110  H         -0.00460000       0.81470000       0.16230000
