data_FARRUM03
_symmetry_space_group_name_H-M    'P1'
_symmetry_Int_Tables_number       1
loop_
_symmetry_equiv_pos_site_id
_symmetry_equiv_pos_as_xyz
1 x,y,z
_cell_length_a                   7.16452
_cell_length_b                   10.80253
_cell_length_c                   14.34294
_cell_angle_alpha                80.30201
_cell_angle_beta                 75.66201
_cell_angle_gamma                89.26701
loop_
_atom_site_label
_atom_site_type_symbol
_atom_site_fract_x
_atom_site_fract_y
_atom_site_fract_z
     1  Cl         0.75253400       0.46707400       0.92400300
     2  Cl         0.24746600       0.53292600       0.07599700
     3  F          0.86627860       0.29445800       0.78237700
     4  F          0.13372140       0.70554200       0.21762300
     5  N          0.26223180      -0.00358880       0.36139900
     6  N          0.73776820       0.00358880       0.63860100
     7  C          0.20572000       0.87776150       0.38452110
     8  C          0.79428000       0.12223850       0.61547890
     9  N          0.15860180       0.80429120       0.47327900
    10  N          0.84139820       0.19570880       0.52672100
    11  C          0.17202000       0.85805140       0.54808110
    12  C          0.82798000       0.14194860       0.45191890
    13  N          0.11971190       0.78805130       0.64019100
    14  N          0.88028810       0.21194870       0.35980900
    15  C          0.26452000       0.04782140       0.61083110
    16  C          0.73548000       0.95217860       0.38916890
    17  C          0.32652000       0.17103140       0.59037110
    18  C          0.67348000       0.82896860       0.40962890
    19  O          0.35968150       0.23991100       0.65629700
    20  O          0.64031850       0.76008900       0.34370300
    21  C          0.36282000       0.23925140       0.49248110
    22  C          0.63718000       0.76074860       0.50751890
    23  O          0.41893150       0.36118100       0.48211700
    24  O          0.58106850       0.63881900       0.51788300
    25  C          0.34002000       0.17957140       0.41878110
    26  C          0.65998000       0.82042860       0.58121890
    27  C          0.27902000       0.05237140       0.43855110
    28  C          0.72098000       0.94762860       0.56144890
    29  C          0.23772000       0.98585140       0.53513110
    30  C          0.76228000       0.01414860       0.46486890
    31  C          0.05162000       0.66265140       0.66882110
    32  C          0.94838000       0.33734860       0.33117890
    33  C          0.94568000       0.62901150       0.76559120
    34  C          0.05432000       0.37098850       0.23440880
    35  C          0.88348000       0.50630150       0.80324110
    36  C          0.11652000       0.49369850       0.19675890
    37  C          0.92468000       0.41574140       0.74407110
    38  C          0.07532000       0.58425860       0.25592890
    39  C          0.02542000       0.44710150       0.64801120
    40  C          0.97458000       0.55289850       0.35198880
    41  C          0.09012000       0.57019150       0.60946110
    42  C          0.90988000       0.42980850       0.39053890
    43  C          0.33312000       0.17847150       0.75596110
    44  C          0.66688000       0.82152850       0.24403890
    45  C          0.37422000       0.27930150       0.81054110
    46  C          0.62578000       0.72069850       0.18945890
    47  C          0.40272000       0.22877160       0.91164120
    48  C          0.59728000       0.77122840       0.08835880
    49  N          0.24178190       0.15155130       0.97851900
    50  N          0.75821810       0.84844870       0.02148100
    51  C          0.06512000       0.22327160      -0.00295880
    52  C          0.93488000       0.77672840       0.00295880
    53  C          0.90527000       0.14835170       0.07485120
    54  C          0.09473000       0.85164830       0.92514880
    55  O          0.96238830       0.10931110       0.16443800
    56  O          0.03761170       0.89068890       0.83556200
    57  C          0.13173000       0.03618160       0.14609120
    58  C          0.86827000       0.96381840       0.85390880
    59  C          0.29433000       0.11055160       0.07125120
    60  C          0.70567000       0.88944840       0.92874880
    61  C          0.44582000       0.43628150       0.38690110
    62  C          0.55418000       0.56371850       0.61309890
    63  H          0.19320000       0.83631700       0.33261300
    64  H          0.80680000       0.16368300       0.66738700
    65  H          0.10630000       0.82581800       0.68511400
    66  H          0.89370000       0.17418200       0.31488600
    67  H          0.24220000       0.00401600       0.67611300
    68  H          0.75780000      -0.00401600       0.32388700
    69  H          0.36630000       0.22221700       0.35201400
    70  H          0.63370000       0.77778300       0.64798600
    71  H          0.91570000       0.68941900       0.80561400
    72  H          0.08430000       0.31058100       0.19438600
    73  H          0.05330000       0.38591800       0.60951300
    74  H          0.94670000       0.61408200       0.39048700
    75  H          0.16330000       0.59231700       0.54411400
    76  H          0.83670000       0.40768300       0.45588600
    77  H          0.42330000       0.10881700       0.76001300
    78  H          0.57670000       0.89118300       0.23998700
    79  H          0.20330000       0.14521600       0.78031200
    80  H          0.79670000       0.85478400       0.21968800
    81  H          0.27230000       0.34421800       0.81491300
    82  H          0.72770000       0.65578200       0.18508700
    83  H          0.49530000       0.32321700       0.77381300
    84  H          0.50470000       0.67678300       0.22618700
    85  H          0.43130000       0.30421800       0.94131300
    86  H          0.56870000       0.69578200       0.05868700
    87  H          0.51830000       0.17561700       0.90471300
    88  H          0.48170000       0.82438300       0.09528700
    89  H          0.02330000       0.24321700       0.93661400
    90  H          0.97670000       0.75678300       0.06338600
    91  H          0.08830000       0.30620000       0.01591400
    92  H          0.91170000       0.69380000       0.98408600
    93  H          0.86570000       0.07391900       0.05261400
    94  H          0.13430000       0.92608100       0.94738600
    95  H          0.79070000       0.20151700       0.09191300
    96  H          0.20930000       0.79848300       0.90808700
    97  H          0.16430000       0.01541800       0.20891500
    98  H          0.83570000       0.98458200       0.79108500
    99  H          0.10030000       0.96021900       0.12511400
   100  H          0.89970000       0.03978100       0.87488600
   101  H          0.33030000       0.18621800       0.09871300
   102  H          0.66970000       0.81378200       0.90128700
   103  H          0.41330000       0.05531900       0.05961400
   104  H          0.58670000       0.94468100       0.94038600
   105  H          0.32430000       0.43701700       0.36511300
   106  H          0.67570000       0.56298300       0.63488700
   107  H          0.54830000       0.40351700       0.33991300
   108  H          0.45170000       0.59648300       0.66008700
   109  H          0.48230000       0.52051900       0.39341400
   110  H          0.51770000       0.47948100       0.60658600
