data_FEBKOP02
_symmetry_space_group_name_H-M    'P1'
_symmetry_Int_Tables_number       1
loop_
_symmetry_equiv_pos_site_id
_symmetry_equiv_pos_as_xyz
1 x,y,z
_cell_length_a                   9.85041
_cell_length_b                   7.49152
_cell_length_c                   31.42728
_cell_angle_alpha                90.0
_cell_angle_beta                 90.0
_cell_angle_gamma                90.0
loop_
_atom_site_label
_atom_site_type_symbol
_atom_site_fract_x
_atom_site_fract_y
_atom_site_fract_z
     1  Cl         0.15122700       0.33957120       0.62450200
     2  Cl         0.34877300       0.66042880       0.12450200
     3  Cl         0.65122700       0.16042880       0.37549800
     4  Cl         0.84877300       0.83957120       0.87549800
     5  Cl         0.84877300       0.66042880       0.37549800
     6  Cl         0.65122700       0.33957120       0.87549800
     7  Cl         0.34877300       0.83957120       0.62450200
     8  Cl         0.15122700       0.16042880       0.12450200
     9  C          0.76403000       0.21224000       0.59897800
    10  C          0.73597000       0.78776000       0.09897800
    11  C          0.26403000       0.28776000       0.40102200
    12  C          0.23597000       0.71224000       0.90102200
    13  C          0.23597000       0.78776000       0.40102200
    14  C          0.26403000       0.21224000       0.90102200
    15  C          0.73597000       0.71224000       0.59897800
    16  C          0.76403000       0.28776000       0.09897800
    17  C          0.77533000       0.13724000       0.55767800
    18  C          0.72467000       0.86276000       0.05767800
    19  C          0.27533000       0.36276000       0.44232200
    20  C          0.22467000       0.63724000       0.94232200
    21  C          0.22467000       0.86276000       0.44232200
    22  C          0.27533000       0.13724000       0.94232200
    23  C          0.72467000       0.63724000       0.55767800
    24  C          0.77533000       0.36276000       0.05767800
    25  C          0.90473000       0.11624000       0.53968800
    26  C          0.59527000       0.88376000       0.03968800
    27  C          0.40473000       0.38376000       0.46031200
    28  C          0.09527000       0.61624000       0.96031200
    29  C          0.09527000       0.88376000       0.46031200
    30  C          0.40473000       0.11624000       0.96031200
    31  C          0.59527000       0.61624000       0.53968800
    32  C          0.90473000       0.38376000       0.03968800
    33  H          0.91216200       0.06075400       0.51259200
    34  H          0.58783800       0.93924600       0.01259200
    35  H          0.41216200       0.43924600       0.48740800
    36  H          0.08783800       0.56075400       0.98740800
    37  H          0.08783800       0.93924600       0.48740800
    38  H          0.41216200       0.06075400       0.98740800
    39  H          0.58783800       0.56075400       0.51259200
    40  H          0.91216200       0.43924600       0.01259200
    41  C          0.02093000       0.17264000       0.55970900
    42  C          0.47907000       0.82736000       0.05970900
    43  C          0.52093000       0.32736000       0.44029100
    44  C          0.97907000       0.67264000       0.94029100
    45  C          0.97907000       0.82736000       0.44029100
    46  C          0.52093000       0.17264000       0.94029100
    47  C          0.47907000       0.67264000       0.55970900
    48  C          0.02093000       0.32736000       0.05970900
    49  H          0.10769400       0.15597100       0.54716100
    50  H          0.39230600       0.84402900       0.04716100
    51  H          0.60769400       0.34402900       0.45283900
    52  H          0.89230600       0.65597100       0.95283900
    53  H          0.89230600       0.84402900       0.45283900
    54  H          0.60769400       0.15597100       0.95283900
    55  H          0.39230600       0.65597100       0.54716100
    56  H          0.10769400       0.34402900       0.04716100
    57  C          0.00643000       0.25444000       0.59873900
    58  C          0.49357000       0.74556000       0.09873900
    59  C          0.50643000       0.24556000       0.40126100
    60  C         -0.00643000       0.75444000       0.90126100
    61  C         -0.00643000       0.74556000       0.40126100
    62  C          0.50643000       0.25444000       0.90126100
    63  C          0.49357000       0.75444000       0.59873900
    64  C          0.00643000       0.24556000       0.09873900
    65  C          0.88283000       0.27674000       0.61834800
    66  C          0.61717000       0.72326000       0.11834800
    67  C          0.38283000       0.22326000       0.38165200
    68  C          0.11717000       0.77674000       0.88165200
    69  C          0.11717000       0.72326000       0.38165200
    70  C          0.38283000       0.27674000       0.88165200
    71  C          0.61717000       0.77674000       0.61834800
    72  C          0.88283000       0.22326000       0.11834800
    73  H          0.87774800       0.33569600       0.64504900
    74  H          0.62225200       0.66430400       0.14504900
    75  H          0.37774800       0.16430400       0.35495100
    76  H          0.12225200       0.83569600       0.85495100
    77  H          0.12225200       0.66430400       0.35495100
    78  H          0.37774800       0.33569600       0.85495100
    79  H          0.62225200       0.83569600       0.64504900
    80  H          0.87774800       0.16430400       0.14504900
    81  N          0.63962000       0.22693000       0.61871700
    82  N          0.86038000       0.77307000       0.11871700
    83  N          0.13962000       0.27307000       0.38128300
    84  N          0.36038000       0.72693000       0.88128300
    85  N          0.36038000       0.77307000       0.38128300
    86  N          0.13962000       0.22693000       0.88128300
    87  N          0.86038000       0.72693000       0.61871700
    88  N          0.63962000       0.27307000       0.11871700
    89  H          0.56730000       0.21140000       0.60079000
    90  H          0.93270000       0.78860000       0.10079000
    91  H          0.06730000       0.28860000       0.39921000
    92  H          0.43270000       0.71140000       0.89921000
    93  H          0.43270000       0.78860000       0.39921000
    94  H          0.06730000       0.21140000       0.89921000
    95  H          0.93270000       0.71140000       0.60079000
    96  H          0.56730000       0.28860000       0.10079000
    97  C          0.61253000       0.28844000       0.66013800
    98  C          0.88747000       0.71156000       0.16013800
    99  C          0.11253000       0.21156000       0.33986200
   100  C          0.38747000       0.78844000       0.83986200
   101  C          0.38747000       0.71156000       0.33986200
   102  C          0.11253000       0.28844000       0.83986200
   103  C          0.88747000       0.78844000       0.66013800
   104  C          0.61253000       0.21156000       0.16013800
   105  C          0.69353000       0.24414000       0.69507900
   106  C          0.80647000       0.75586000       0.19507900
   107  C          0.19353000       0.25586000       0.30492100
   108  C          0.30647000       0.74414000       0.80492100
   109  C          0.30647000       0.75586000       0.30492100
   110  C          0.19353000       0.24414000       0.80492100
   111  C          0.80647000       0.74414000       0.69507900
   112  C          0.69353000       0.25586000       0.19507900
   113  H          0.76989600       0.16809100       0.69162100
   114  H          0.73010400       0.83190900       0.19162100
   115  H          0.26989600       0.33190900       0.30837900
   116  H          0.23010400       0.66809100       0.80837900
   117  H          0.23010400       0.83190900       0.30837900
   118  H          0.26989600       0.16809100       0.80837900
   119  H          0.73010400       0.66809100       0.69162100
   120  H          0.76989600       0.33190900       0.19162100
   121  C          0.66133000       0.31244000       0.73484900
   122  C          0.83867000       0.68756000       0.23484900
   123  C          0.16133000       0.18756000       0.26515100
   124  C          0.33867000       0.81244000       0.76515100
   125  C          0.33867000       0.68756000       0.26515100
   126  C          0.16133000       0.31244000       0.76515100
   127  C          0.83867000       0.81244000       0.73484900
   128  C          0.66133000       0.18756000       0.23484900
   129  H          0.71816400       0.28643900       0.75846800
   130  H          0.78183600       0.71356100       0.25846800
   131  H          0.21816400       0.21356100       0.24153200
   132  H          0.28183600       0.78643900       0.74153200
   133  H          0.28183600       0.71356100       0.24153200
   134  H          0.21816400       0.28643900       0.74153200
   135  H          0.78183600       0.78643900       0.75846800
   136  H          0.71816400       0.21356100       0.25846800
   137  C          0.54753000       0.41784000       0.74050900
   138  C          0.95247000       0.58216000       0.24050900
   139  C          0.04753000       0.08216000       0.25949100
   140  C          0.45247000       0.91784000       0.75949100
   141  C          0.45247000       0.58216000       0.25949100
   142  C          0.04753000       0.41784000       0.75949100
   143  C          0.95247000       0.91784000       0.74050900
   144  C          0.54753000       0.08216000       0.24050900
   145  H          0.52678200       0.46472600       0.76781900
   146  H          0.97321800       0.53527400       0.26781900
   147  H          0.02678200       0.03527400       0.23218100
   148  H          0.47321800       0.96472600       0.73218100
   149  H          0.47321800       0.53527400       0.23218100
   150  H          0.02678200       0.46472600       0.73218100
   151  H          0.97321800       0.96472600       0.76781900
   152  H          0.52678200       0.03527400       0.26781900
   153  C          0.46413000       0.45464000       0.70629900
   154  C          0.03587000       0.54536000       0.20629900
   155  C          0.96413000       0.04536000       0.29370100
   156  C          0.53587000       0.95464000       0.79370100
   157  C          0.53587000       0.54536000       0.29370100
   158  C          0.96413000       0.45464000       0.79370100
   159  C          0.03587000       0.95464000       0.70629900
   160  C          0.46413000       0.04536000       0.20629900
   161  H          0.38440500       0.52408800       0.71025300
   162  H          0.11559500       0.47591200       0.21025300
   163  H          0.88440500       0.97591200       0.28974700
   164  H          0.61559500       0.02408800       0.78974700
   165  H          0.61559500       0.47591200       0.28974700
   166  H          0.88440500       0.52408800       0.78974700
   167  H          0.11559500       0.02408800       0.71025300
   168  H          0.38440500       0.97591200       0.21025300
   169  C          0.49623000       0.39054000       0.66635900
   170  C          0.00377000       0.60946000       0.16635900
   171  C         -0.00377000       0.10946000       0.33364100
   172  C          0.50377000       0.89054000       0.83364100
   173  C          0.50377000       0.60946000       0.33364100
   174  C         -0.00377000       0.39054000       0.83364100
   175  C          0.00377000       0.89054000       0.66635900
   176  C          0.49623000       0.10946000       0.16635900
   177  H          0.43850000       0.41633700       0.64292700
   178  H          0.06150000       0.58366300       0.14292700
   179  H          0.93850000       0.08366300       0.35707300
   180  H          0.56150000       0.91633700       0.85707300
   181  H          0.56150000       0.58366300       0.35707300
   182  H          0.93850000       0.41633700       0.85707300
   183  H          0.06150000       0.91633700       0.64292700
   184  H          0.43850000       0.08366300       0.14292700
   185  C          0.65613000       0.08184000       0.53294900
   186  C          0.84387000       0.91816000       0.03294900
   187  C          0.15613000       0.41816000       0.46705100
   188  C          0.34387000       0.58184000       0.96705100
   189  C          0.34387000       0.91816000       0.46705100
   190  C          0.15613000       0.08184000       0.96705100
   191  C          0.84387000       0.58184000       0.53294900
   192  C          0.65613000       0.41816000       0.03294900
   193  O          0.53744180       0.11023000       0.54382600
   194  O          0.96255820       0.88977000       0.04382600
   195  O          0.03744180       0.38977000       0.45617400
   196  O          0.46255820       0.61023000       0.95617400
   197  O          0.46255820       0.88977000       0.45617400
   198  O          0.03744180       0.11023000       0.95617400
   199  O          0.96255820       0.61023000       0.54382600
   200  O          0.53744180       0.38977000       0.04382600
   201  O          0.68442000       0.00183000       0.49629600
   202  O          0.81558000      -0.00183000      -0.00370400
   203  O          0.18442000       0.49817000       0.50370400
   204  O          0.31558000       0.50183000       0.00370400
   205  O          0.31558000      -0.00183000       0.50370400
   206  O          0.18442000       0.00183000       0.00370400
   207  O          0.81558000       0.50183000       0.49629600
   208  O          0.68442000       0.49817000      -0.00370400
   209  H          0.60930000       0.96560000       0.48289000
   210  H          0.89070000       0.03440000       0.98289000
   211  H          0.10930000       0.53440000       0.51711000
   212  H          0.39070000       0.46560000       0.01711000
   213  H          0.39070000       0.03440000       0.51711000
   214  H          0.10930000       0.96560000       0.01711000
   215  H          0.89070000       0.46560000       0.48289000
   216  H          0.60930000       0.53440000       0.98289000
