data_FEBKOP
_symmetry_space_group_name_H-M    'P1'
_symmetry_Int_Tables_number       1
loop_
_symmetry_equiv_pos_site_id
_symmetry_equiv_pos_as_xyz
1 x,y,z
_cell_length_a                   9.90152
_cell_length_b                   10.77012
_cell_length_c                   11.39352
_cell_angle_alpha                90.25238
_cell_angle_beta                 103.89868
_cell_angle_gamma                102.71608
loop_
_atom_site_label
_atom_site_type_symbol
_atom_site_fract_x
_atom_site_fract_y
_atom_site_fract_z
     1  Cl         0.35111400       0.49259400       0.68818400
     2  Cl         0.64888600       0.50740600       0.31181600
     3  C          0.59133160       0.23552140       0.71121130
     4  C          0.40866840       0.76447860       0.28878870
     5  C          0.57784170       0.20411140       0.58667130
     6  C          0.42215830       0.79588860       0.41332870
     7  C          0.49208170       0.26179140       0.49756140
     8  C          0.50791830       0.73820860       0.50243860
     9  H          0.48248300       0.23914700       0.41479000
    10  H          0.51751700       0.76085300       0.58521000
    11  C          0.42114170       0.35009150       0.52538140
    12  C          0.57885830       0.64990850       0.47461860
    13  H          0.36399200       0.38892700       0.46387200
    14  H          0.63600800       0.61107300       0.53612800
    15  C          0.43695170       0.37993140       0.64792140
    16  C          0.56304830       0.62006860       0.35207860
    17  C          0.51768170       0.32500140       0.73903140
    18  C          0.48231830       0.67499860       0.26096860
    19  H          0.52388200       0.34746800       0.82118800
    20  H          0.47611800       0.65253200       0.17881200
    21  N          0.67284150       0.17967130       0.80096120
    22  N          0.32715850       0.82032870       0.19903880
    23  H          0.70381900       0.11291700       0.77741500
    24  H          0.29618100       0.88708300       0.22258500
    25  C          0.69404170       0.20321150       0.92757140
    26  C          0.30595830       0.79678850       0.07242860
    27  C          0.66548180       0.10117160      -0.00231860
    28  C          0.33451820       0.89882840       0.00231860
    29  H          0.63196300       0.01709100       0.96099300
    30  H          0.36803700       0.98290900       0.03900700
    31  C          0.68571190       0.12129170       0.12196150
    32  C          0.31428810       0.87870830       0.87803850
    33  H          0.66587700       0.05079700       0.16986700
    34  H          0.33412300       0.94920300       0.83013300
    35  C          0.73441190       0.24305170       0.17609150
    36  C          0.26558810       0.75694830       0.82390850
    37  H          0.74642100       0.25677500       0.26076300
    38  H          0.25357900       0.74322500       0.73923700
    39  C          0.76559180       0.34491170       0.10608150
    40  C          0.23440820       0.65508830       0.89391850
    41  H          0.80041500       0.42871500       0.14326000
    42  H          0.19958500       0.57128500       0.85674000
    43  C          0.74660180       0.32606160       0.98236140
    44  C          0.25339820       0.67393840       0.01763860
    45  H          0.76924900       0.39644200       0.93503600
    46  H          0.23075100       0.60355800       0.06496400
    47  C          0.65099160       0.11188140       0.54928130
    48  C          0.34900840       0.88811860       0.45071870
    49  O          0.72668110       0.05395100       0.62057900
    50  O          0.27331890       0.94604900       0.37942100
    51  O          0.62916120       0.09435110       0.43031900
    52  O          0.37083880       0.90564890       0.56968100
    53  H          0.67701900       0.03581800       0.41371600
    54  H          0.32298100       0.96418200       0.58628400
    55  Cl         0.86075400       0.50414400       0.70774300
    56  Cl         0.13924600       0.49585600       0.29225700
    57  C          0.08577170       0.23494140       0.72380140
    58  C          0.91422830       0.76505860       0.27619860
    59  C          0.07278170       0.20666140       0.59897130
    60  C          0.92721830       0.79333860       0.40102870
    61  C         -0.01039830       0.26797140       0.51105140
    62  C          0.01039830       0.73202860       0.48894860
    63  H         -0.01973700       0.24754900       0.42785800
    64  H          0.01973700       0.75245100       0.57214200
    65  C          0.92109170       0.35684150       0.54167140
    66  C          0.07890830       0.64315850       0.45832860
    67  H          0.86473500       0.39749300       0.48126200
    68  H          0.13526500       0.60250700       0.51873800
    69  C          0.93745170       0.38520140       0.66516140
    70  C          0.06254830       0.61479860       0.33483860
    71  C          0.01493160       0.32570140       0.75457140
    72  C         -0.01493160       0.67429860       0.24542860
    73  H          0.02082100       0.34567500       0.83720900
    74  H         -0.02082100       0.65432500       0.16279100
    75  N          0.16865160       0.17904140       0.81239120
    76  N          0.83134840       0.82095860       0.18760880
    77  H          0.21891900       0.12941700       0.78641500
    78  H          0.78108100       0.87058300       0.21358500
    79  C          0.18406180       0.19514150       0.93917140
    80  C          0.81593820       0.80485850       0.06082860
    81  C          0.31909190       0.23539160       0.01504140
    82  C          0.68090810       0.76460840       0.98495860
    83  H          0.40015000       0.25640400       0.98204300
    84  H          0.59985000       0.74359600       0.01795700
    85  C          0.33622000       0.24509180       0.13967150
    86  C          0.66378000       0.75490820       0.86032850
    87  H          0.42930500       0.27108500       0.19179100
    88  H          0.57069500       0.72891500       0.80820900
    89  C          0.21869190       0.21717160       0.18816150
    90  C          0.78130810       0.78282840       0.81183850
    91  H          0.23071100       0.22523900       0.27332700
    92  H          0.76928900       0.77476100       0.72667300
    93  C          0.08364190       0.17748170       0.11247150
    94  C          0.91635810       0.82251830       0.88752850
    95  H          0.00245700       0.15840200       0.14543500
    96  H         -0.00245700       0.84159800       0.85456500
    97  C          0.06662190       0.16547170      -0.01202860
    98  C          0.93337810       0.83452830       0.01202860
    99  H          0.97377400       0.13670900       0.93609100
   100  H          0.02622600       0.86329100       0.06390900
   101  C          0.14724170       0.11694140       0.55956130
   102  C          0.85275830       0.88305860       0.44043870
   103  O          0.23165110       0.06527100       0.63000900
   104  O          0.76834890       0.93472900       0.36999100
   105  O          0.11782120       0.09409100       0.44042900
   106  O          0.88217880       0.90590900       0.55957100
   107  H          0.17591900       0.03861700       0.42181600
   108  H          0.82408100       0.96138300       0.57818400
