data_FEBKOP01
_symmetry_space_group_name_H-M    'P1'
_symmetry_Int_Tables_number       1
loop_
_symmetry_equiv_pos_site_id
_symmetry_equiv_pos_as_xyz
1 x,y,z
_cell_length_a                   8.22492
_cell_length_b                   10.12693
_cell_length_c                   13.79934
_cell_angle_alpha                88.226611
_cell_angle_beta                 85.954011
_cell_angle_gamma                81.416811
loop_
_atom_site_label
_atom_site_type_symbol
_atom_site_fract_x
_atom_site_fract_y
_atom_site_fract_z
     1  Cl         0.95907600       0.64471500       0.24016300
     2  Cl         0.04092400       0.35528500       0.75983700
     3  C          0.59702000       0.94606810       0.19182130
     4  C          0.40298000       0.05393190       0.80817870
     5  C          0.66032000       0.00391190       0.10428130
     6  C          0.33968000      -0.00391190       0.89571870
     7  C          0.81362000       0.94681810       0.06216130
     8  C          0.18638000       0.05318190       0.93783870
     9  H          0.85469600       0.98539700       0.00355200
    10  H          0.14530400       0.01460300      -0.00355200
    11  C          0.90662000       0.83790810       0.10179130
    12  C          0.09338000       0.16209190       0.89820870
    13  H          0.01074500       0.80140300       0.07218800
    14  H         -0.01074500       0.19859700       0.92781200
    15  C          0.84282000       0.78276810       0.18706130
    16  C          0.15718000       0.21723190       0.81293870
    17  C          0.69322000       0.83298820       0.23200130
    18  C          0.30678000       0.16701180       0.76799870
    19  H          0.65431000       0.79175100       0.29009400
    20  H          0.34569000       0.20824900       0.70990600
    21  N          0.45047190      -0.00074170       0.23790120
    22  N          0.54952810       0.00074170       0.76209880
    23  H          0.40120000       0.07420000       0.21161400
    24  H          0.59880000       0.92580000       0.78838600
    25  C          0.37272000       0.94198810       0.32117140
    26  C          0.62728000       0.05801190       0.67882860
    27  C          0.32522000       0.81628000       0.31749140
    28  C          0.67478000       0.18372000       0.68250860
    29  H          0.34941900       0.76566300       0.26008900
    30  H          0.65058100       0.23433700       0.73991100
    31  C          0.24232000       0.76468000       0.39773140
    32  C          0.75768000       0.23532000       0.60226860
    33  H          0.21156100       0.67809300       0.39572500
    34  H          0.78843900       0.32190700       0.60427500
    35  C          0.20442000       0.83978000       0.48078140
    36  C          0.79558000       0.16022000       0.51921860
    37  H          0.14563900       0.80564800       0.53533500
    38  H          0.85436100       0.19435200       0.46466500
    39  C          0.25252000       0.96478000       0.48394140
    40  C          0.74748000       0.03522000       0.51605860
    41  H          0.22662800       0.01619900       0.54092100
    42  H          0.77337200       0.98380100       0.45907900
    43  C          0.33772000       0.01562000       0.40488130
    44  C          0.66228000       0.98438000       0.59511870
    45  H          0.37223000       0.10073200       0.40800900
    46  H          0.62777000       0.89926800       0.59199100
    47  C          0.57272000       0.12385190       0.05916130
    48  C          0.42728000       0.87614810       0.94083870
    49  O          0.43798150       0.18531130       0.09151900
    50  O          0.56201850       0.81468870       0.90848100
    51  O          0.64971160       0.16435140       0.97855100
    52  O          0.35028840       0.83564860       0.02144900
    53  H          0.59120000       0.25320000       0.95448600
    54  H          0.40880000       0.74680000       0.04551400
    55  Cl         0.98489600       0.07709500       0.27343300
    56  Cl         0.01510400       0.92290500       0.72656700
    57  C          0.63902000       0.38135180       0.20481130
    58  C          0.36098000       0.61864820       0.79518870
    59  C          0.71702000       0.43747190       0.12100130
    60  C          0.28298000       0.56252810       0.87899870
    61  C          0.87652000       0.37981190       0.08881130
    62  C          0.12348000       0.62018810       0.91118870
    63  H          0.92810100       0.41712400       0.03287300
    64  H          0.07189900       0.58287600       0.96712700
    65  C          0.96082000       0.27165190       0.13496130
    66  C          0.03918000       0.72834810       0.86503870
    67  H          0.06955600       0.23517400       0.11247800
    68  H          0.93044400       0.76482600       0.88752200
    69  C          0.88202000       0.21687180       0.21583130
    70  C          0.11798000       0.78312820       0.78416870
    71  C          0.72522000       0.26901180       0.25042130
    72  C          0.27478000       0.73098820       0.74957870
    73  H          0.67499100       0.22868600       0.30552900
    74  H          0.32500900       0.77131400       0.69447100
    75  N          0.48209190       0.43356160       0.23697110
    76  N          0.51790810       0.56643840       0.76302890
    77  H          0.43220000       0.49521800       0.19921300
    78  H          0.56780000       0.50478200       0.80078700
    79  C          0.38852000       0.39811180       0.32124130
    80  C          0.61148000       0.60188820       0.67875870
    81  C          0.45302000       0.38246180       0.41227130
    82  C          0.54698000       0.61753820       0.58772870
    83  H          0.56591300       0.38817600       0.41876800
    84  H          0.43408700       0.61182400       0.58123200
    85  C          0.35122000       0.35849190       0.49329140
    86  C          0.64878000       0.64150810       0.50670860
    87  H          0.39574600       0.34590200       0.55515700
    88  H          0.60425400       0.65409800       0.44484300
    89  C          0.18612000       0.35264190       0.48533140
    90  C          0.81388000       0.64735810       0.51466860
    91  H          0.11681200       0.33796400       0.54147400
    92  H          0.88318800       0.66203600       0.45852600
    93  C          0.12232000       0.36835190       0.39491140
    94  C          0.87768000       0.63164810       0.60508860
    95  H          0.00869000       0.36482500       0.38902400
    96  H         -0.00869000       0.63517500       0.61097600
    97  C          0.22332000       0.38923180       0.31267140
    98  C          0.77668000       0.61076820       0.68732860
    99  H          0.17945400       0.39745200       0.25054800
   100  H          0.82054600       0.60254800       0.74945200
   101  C          0.63602000       0.55419190       0.06901130
   102  C          0.36398000       0.44580810       0.93098870
   103  O          0.49311150       0.60846130       0.09054900
   104  O          0.50688850       0.39153870       0.90945100
   105  O          0.72624160       0.60020140      -0.00461900
   106  O          0.27375840       0.39979860       0.00461900
   107  H          0.66320000       0.67720000       0.96788600
   108  H          0.33680000       0.32280000       0.03211400
