data_FENTOH02
_symmetry_space_group_name_H-M    'P1'
_symmetry_Int_Tables_number       1
loop_
_symmetry_equiv_pos_site_id
_symmetry_equiv_pos_as_xyz
1 x,y,z
_cell_length_a                   13.02228
_cell_length_b                   13.02228
_cell_length_c                   7.93881
_cell_angle_alpha                90.0
_cell_angle_beta                 90.0
_cell_angle_gamma                90.0
loop_
_atom_site_label
_atom_site_type_symbol
_atom_site_fract_x
_atom_site_fract_y
_atom_site_fract_z
     1  O          0.42391800       0.27047800       0.94175890
     2  O          0.07608200       0.22952200       0.94175890
     3  O          0.72952200       0.92391800       0.44175890
     4  O          0.77047800       0.57608200       0.44175890
     5  O          0.57608200       0.72952200       0.05824110
     6  O          0.92391800       0.77047800       0.05824110
     7  O          0.27047800       0.07608200       0.55824110
     8  O          0.22952200       0.42391800       0.55824110
     9  O          0.40278600       0.34575600       0.19328100
    10  O          0.09721400       0.15424400       0.19328100
    11  O          0.65424400       0.90278600       0.69328100
    12  O          0.84575600       0.59721400       0.69328100
    13  O          0.59721400       0.65424400       0.80671900
    14  O          0.90278600       0.84575600       0.80671900
    15  O          0.34575600       0.09721400       0.30671900
    16  O          0.15424400       0.40278600       0.30671900
    17  O          0.14257700       0.65495700       0.17144110
    18  O          0.35742300       0.84504300       0.17144110
    19  O          0.34504300       0.64257700       0.67144110
    20  O          0.15495700       0.85742300       0.67144110
    21  O          0.85742300       0.34504300       0.82855890
    22  O          0.64257700       0.15495700       0.82855890
    23  O          0.65495700       0.35742300       0.32855890
    24  O          0.84504300       0.14257700       0.32855890
    25  O          0.03868700       0.63897700       0.94763890
    26  O          0.46131300       0.86102300       0.94763890
    27  O          0.36102300       0.53868700       0.44763890
    28  O          0.13897700       0.96131300       0.44763890
    29  O          0.96131300       0.36102300       0.05236110
    30  O          0.53868700       0.13897700       0.05236110
    31  O          0.63897700       0.46131300       0.55236110
    32  O          0.86102300       0.03868700       0.55236110
    33  H         -0.00601200       0.69921300       0.00320000
    34  H          0.50601200       0.80078700       0.00320000
    35  H          0.30078700       0.49398800       0.50320000
    36  H          0.19921300       0.00601200       0.50320000
    37  H          0.00601200       0.30078700      -0.00320000
    38  H          0.49398800       0.19921300      -0.00320000
    39  H          0.69921300       0.50601200       0.49680000
    40  H          0.80078700      -0.00601200       0.49680000
    41  N          0.26599600       0.48977700       0.04941110
    42  N          0.23400400       0.01022300       0.04941110
    43  N          0.51022300       0.76599600       0.54941110
    44  N         -0.01022300       0.73400400       0.54941110
    45  N          0.73400400       0.51022300       0.95058890
    46  N          0.76599600      -0.01022300       0.95058890
    47  N          0.48977700       0.23400400       0.45058890
    48  N          0.01022300       0.26599600       0.45058890
    49  H          0.24570000       0.47110000       0.15750000
    50  H          0.25430000       0.02890000       0.15750000
    51  H          0.52890000       0.74570000       0.65750000
    52  H          0.97110000       0.75430000       0.65750000
    53  H          0.75430000       0.52890000       0.84250000
    54  H          0.74570000       0.97110000       0.84250000
    55  H          0.47110000       0.25430000       0.34250000
    56  H          0.02890000       0.24570000       0.34250000
    57  C          0.30078900       0.39656900       0.95693860
    58  C          0.19921100       0.10343100       0.95693860
    59  C          0.60343100       0.80078900       0.45693860
    60  C          0.89656900       0.69921100       0.45693860
    61  C          0.69921100       0.60343100       0.04306140
    62  C          0.80078900       0.89656900       0.04306140
    63  C          0.39656900       0.19921100       0.54306140
    64  C          0.10343100       0.30078900       0.54306140
    65  H          0.32640000       0.41800000       0.84490000
    66  H          0.17360000       0.08200000       0.84490000
    67  H          0.58200000       0.82640000       0.34490000
    68  H          0.91800000       0.67360000       0.34490000
    69  H          0.67360000       0.58200000       0.15510000
    70  H          0.82640000       0.91800000       0.15510000
    71  H          0.41800000       0.17360000       0.65510000
    72  H          0.08200000       0.32640000       0.65510000
    73  H          0.24060000       0.35150000       0.93840000
    74  H          0.25940000       0.14850000       0.93840000
    75  H          0.64850000       0.74060000       0.43840000
    76  H          0.85150000       0.75940000       0.43840000
    77  H          0.75940000       0.64850000       0.06160000
    78  H          0.74060000       0.85150000       0.06160000
    79  H          0.35150000       0.25940000       0.56160000
    80  H          0.14850000       0.24060000       0.56160000
    81  C          0.38403900       0.33435800       0.04346140
    82  C          0.11596100       0.16564200       0.04346140
    83  C          0.66564200       0.88403900       0.54346140
    84  C          0.83435800       0.61596100       0.54346140
    85  C          0.61596100       0.66564200       0.95653860
    86  C          0.88403900       0.83435800       0.95653860
    87  C          0.33435800       0.11596100       0.45653860
    88  C          0.16564200       0.38403900       0.45653860
    89  C          0.17528800       0.52907800       0.95500870
    90  C          0.32471200       0.97092200       0.95500870
    91  C          0.47092200       0.67528800       0.45500870
    92  C          0.02907800       0.82471200       0.45500870
    93  C          0.82471200       0.47092200       0.04499130
    94  C          0.67528800       0.02907800       0.04499130
    95  C          0.52907800       0.32471200       0.54499130
    96  C          0.97092200       0.17528800       0.54499130
    97  H          0.12690000       0.47140000       0.93680000
    98  H          0.37310000       0.02860000       0.93680000
    99  H          0.52860000       0.62690000       0.43680000
   100  H          0.97140000       0.87310000       0.43680000
   101  H          0.87310000       0.52860000       0.06320000
   102  H          0.62690000       0.97140000       0.06320000
   103  H          0.47140000       0.37310000       0.56320000
   104  H          0.02860000       0.12690000       0.56320000
   105  H          0.19850000       0.55290000       0.84290000
   106  H          0.30150000       0.94710000       0.84290000
   107  H          0.44710000       0.69850000       0.34290000
   108  H          0.05290000       0.80150000       0.34290000
   109  H          0.80150000       0.44710000       0.15710000
   110  H          0.69850000       0.05290000       0.15710000
   111  H          0.55290000       0.30150000       0.65710000
   112  H          0.94710000       0.19850000       0.65710000
   113  C          0.11789800       0.61585800       0.03976140
   114  C          0.38210200       0.88414200       0.03976140
   115  C          0.38414200       0.61789800       0.53976140
   116  C          0.11585800       0.88210200       0.53976140
   117  C          0.88210200       0.38414200       0.96023860
   118  C          0.61789800       0.11585800       0.96023860
   119  C          0.61585800       0.38210200       0.46023860
   120  C          0.88414200       0.11789800       0.46023860
   121  C          0.35007900       0.56748900       0.06105150
   122  C          0.14992100       0.93251100       0.06105150
   123  C          0.43251100       0.85007900       0.56105150
   124  C          0.06748900       0.64992100       0.56105150
   125  C          0.64992100       0.43251100       0.93894850
   126  C          0.85007900       0.06748900       0.93894850
   127  C          0.56748900       0.14992100       0.43894850
   128  C          0.93251100       0.35007900       0.43894850
   129  H          0.37250000       0.58650000       0.94740000
   130  H          0.12750000       0.91350000       0.94740000
   131  H          0.41350000       0.87250000       0.44740000
   132  H          0.08650000       0.62750000       0.44740000
   133  H          0.62750000       0.41350000       0.05260000
   134  H          0.87250000       0.08650000       0.05260000
   135  H          0.58650000       0.12750000       0.55260000
   136  H          0.91350000       0.37250000       0.55260000
   137  H          0.40810000       0.53830000       0.12340000
   138  H          0.09190000       0.96170000       0.12340000
   139  H          0.46170000       0.90810000       0.62340000
   140  H          0.03830000       0.59190000       0.62340000
   141  H          0.59190000       0.46170000       0.87660000
   142  H          0.90810000       0.03830000       0.87660000
   143  H          0.53830000       0.09190000       0.37660000
   144  H          0.96170000       0.40810000       0.37660000
   145  H          0.32480000       0.62860000       0.11990000
   146  H          0.17520000       0.87140000       0.11990000
   147  H          0.37140000       0.82480000       0.61990000
   148  H          0.12860000       0.67520000       0.61990000
   149  H          0.67520000       0.37140000       0.88010000
   150  H          0.82480000       0.12860000       0.88010000
   151  H          0.62860000       0.17520000       0.38010000
   152  H          0.87140000       0.32480000       0.38010000
