data_FENTOH
_symmetry_space_group_name_H-M    'P1'
_symmetry_Int_Tables_number       1
loop_
_symmetry_equiv_pos_site_id
_symmetry_equiv_pos_as_xyz
1 x,y,z
_cell_length_a                   9.2742
_cell_length_b                   10.5072
_cell_length_c                   13.5402
_cell_angle_alpha                90.0
_cell_angle_beta                 90.0
_cell_angle_gamma                90.0
loop_
_atom_site_label
_atom_site_type_symbol
_atom_site_fract_x
_atom_site_fract_y
_atom_site_fract_z
     1  O          0.09111000       0.63551000       0.17801000
     2  O          0.40889000       0.36449000       0.67801000
     3  O          0.59111000       0.86449000       0.82199000
     4  O          0.90889000       0.13551000       0.32199000
     5  O          0.90889000       0.36449000       0.82199000
     6  O          0.59111000       0.63551000       0.32199000
     7  O          0.40889000       0.13551000       0.17801000
     8  O          0.09111000       0.86449000       0.67801000
     9  O          0.32831000       0.63881000       0.14821000
    10  O          0.17169000       0.36119000       0.64821000
    11  O          0.82831000       0.86119000       0.85179000
    12  O          0.67169000       0.13881000       0.35179000
    13  O          0.67169000       0.36119000       0.85179000
    14  O          0.82831000       0.63881000       0.35179000
    15  O          0.17169000       0.13881000       0.14821000
    16  O          0.32831000       0.86119000       0.64821000
    17  O          0.14351000       0.51011000       0.42241000
    18  O          0.35649000       0.48989000       0.92241000
    19  O          0.64351000      -0.01011000       0.57759000
    20  O          0.85649000       0.01011000       0.07759000
    21  O          0.85649000       0.48989000       0.57759000
    22  O          0.64351000       0.51011000       0.07759000
    23  O          0.35649000       0.01011000       0.42241000
    24  O          0.14351000      -0.01011000       0.92241000
    25  O          0.18561000       0.57891000       0.57621000
    26  O          0.31439000       0.42109000       0.07621000
    27  O          0.68561000       0.92109000       0.42379000
    28  O          0.81439000       0.07891000       0.92379000
    29  O          0.81439000       0.42109000       0.42379000
    30  O          0.68561000       0.57891000       0.92379000
    31  O          0.31439000       0.07891000       0.57621000
    32  O          0.18561000       0.92109000       0.07621000
    33  N          0.10821000       0.75221000       0.35121000
    34  N          0.39179000       0.24779000       0.85121000
    35  N          0.60821000       0.74779000       0.64879000
    36  N          0.89179000       0.25221000       0.14879000
    37  N          0.89179000       0.24779000       0.64879000
    38  N          0.60821000       0.75221000       0.14879000
    39  N          0.39179000       0.25221000       0.35121000
    40  N          0.10821000       0.74779000       0.85121000
    41  C          0.24582000       0.73302000       0.29521000
    42  C          0.25418000       0.26698000       0.79521000
    43  C          0.74582000       0.76698000       0.70479000
    44  C          0.75418000       0.23302000       0.20479000
    45  C          0.75418000       0.26698000       0.70479000
    46  C          0.74582000       0.73302000       0.20479000
    47  C          0.25418000       0.23302000       0.29521000
    48  C          0.24582000       0.76698000       0.79521000
    49  C          0.21592000       0.66391000       0.19881000
    50  C          0.28408000       0.33609000       0.69881000
    51  C          0.71592000       0.83609000       0.80119000
    52  C          0.78408000       0.16391000       0.30119000
    53  C          0.78408000       0.33609000       0.80119000
    54  C          0.71592000       0.66391000       0.30119000
    55  C          0.28408000       0.16391000       0.19881000
    56  C          0.21592000       0.83609000       0.69881000
    57  C          0.12581000       0.73221000       0.45951000
    58  C          0.37419000       0.26779000       0.95951000
    59  C          0.62581000       0.76779000       0.54049000
    60  C          0.87419000       0.23221000       0.04049000
    61  C          0.87419000       0.26779000       0.54049000
    62  C          0.62581000       0.73221000       0.04049000
    63  C          0.37419000       0.23221000       0.45951000
    64  C          0.12581000       0.76779000       0.95951000
    65  C          0.15332000       0.59402000       0.48341000
    66  C          0.34668000       0.40598000       0.98341000
    67  C          0.65332000       0.90598000       0.51659000
    68  C          0.84668000       0.09402000       0.01659000
    69  C          0.84668000       0.40598000       0.51659000
    70  C          0.65332000       0.59402000       0.01659000
    71  C          0.34668000       0.09402000       0.48341000
    72  C          0.15332000       0.90598000       0.98341000
    73  C          0.04492000       0.88011000       0.33041000
    74  C          0.45508000       0.11989000       0.83041000
    75  C          0.54492000       0.61989000       0.66959000
    76  C          0.95508000       0.38011000       0.16959000
    77  C          0.95508000       0.11989000       0.66959000
    78  C          0.54492000       0.88011000       0.16959000
    79  C          0.45508000       0.38011000       0.33041000
    80  C          0.04492000       0.61989000       0.83041000
    81  H          0.28720000       0.82120000       0.28420000
    82  H          0.21280000       0.17880000       0.78420000
    83  H          0.78720000       0.67880000       0.71580000
    84  H          0.71280000       0.32120000       0.21580000
    85  H          0.71280000       0.17880000       0.71580000
    86  H          0.78720000       0.82120000       0.21580000
    87  H          0.21280000       0.32120000       0.28420000
    88  H          0.28720000       0.67880000       0.78420000
    89  H          0.31320000       0.67820000       0.33520000
    90  H          0.18680000       0.32180000       0.83520000
    91  H          0.81320000       0.82180000       0.66480000
    92  H          0.68680000       0.17820000       0.16480000
    93  H          0.68680000       0.32180000       0.66480000
    94  H          0.81320000       0.67820000       0.16480000
    95  H          0.18680000       0.17820000       0.33520000
    96  H          0.31320000       0.82180000       0.83520000
    97  H          0.20520000       0.78820000       0.48510000
    98  H          0.29480000       0.21180000       0.98510000
    99  H          0.70520000       0.71180000       0.51490000
   100  H          0.79480000       0.28820000       0.01490000
   101  H          0.79480000       0.21180000       0.51490000
   102  H          0.70520000       0.78820000       0.01490000
   103  H          0.29480000       0.28820000       0.48510000
   104  H          0.20520000       0.71180000       0.98510000
   105  H          0.04020000       0.75820000       0.49220000
   106  H          0.45980000       0.24180000      -0.00780000
   107  H          0.54020000       0.74180000       0.50780000
   108  H          0.95980000       0.25820000       0.00780000
   109  H          0.95980000       0.24180000       0.50780000
   110  H          0.54020000       0.75820000       0.00780000
   111  H          0.45980000       0.25820000       0.49220000
   112  H          0.04020000       0.74180000      -0.00780000
   113  H          0.03920000       0.89420000       0.25620000
   114  H          0.46080000       0.10580000       0.75620000
   115  H          0.53920000       0.60580000       0.74380000
   116  H          0.96080000       0.39420000       0.24380000
   117  H          0.96080000       0.10580000       0.74380000
   118  H          0.53920000       0.89420000       0.24380000
   119  H          0.46080000       0.39420000       0.25620000
   120  H          0.03920000       0.60580000       0.75620000
   121  H          0.94880000       0.89020000       0.36320000
   122  H          0.55120000       0.10980000       0.86320000
   123  H          0.44880000       0.60980000       0.63680000
   124  H          0.05120000       0.39020000       0.13680000
   125  H          0.05120000       0.10980000       0.63680000
   126  H          0.44880000       0.89020000       0.13680000
   127  H          0.55120000       0.39020000       0.36320000
   128  H          0.94880000       0.60980000       0.86320000
   129  H          0.11220000       0.94520000       0.35920000
   130  H          0.38780000       0.05480000       0.85920000
   131  H          0.61220000       0.55480000       0.64080000
   132  H          0.88780000       0.44520000       0.14080000
   133  H          0.88780000       0.05480000       0.64080000
   134  H          0.61220000       0.94520000       0.14080000
   135  H          0.38780000       0.44520000       0.35920000
   136  H          0.11220000       0.55480000       0.85920000
   137  H          0.04030000       0.68820000       0.32820000
   138  H          0.45970000       0.31180000       0.82820000
   139  H          0.54030000       0.81180000       0.67180000
   140  H          0.95970000       0.18820000       0.17180000
   141  H          0.95970000       0.31180000       0.67180000
   142  H          0.54030000       0.68820000       0.17180000
   143  H          0.45970000       0.18820000       0.32820000
   144  H          0.04030000       0.81180000       0.82820000
   145  H          0.18530000       0.48730000       0.59920000
   146  H          0.31470000       0.51270000       0.09920000
   147  H          0.68530000       0.01270000       0.40080000
   148  H          0.81470000      -0.01270000       0.90080000
   149  H          0.81470000       0.51270000       0.40080000
   150  H          0.68530000       0.48730000       0.90080000
   151  H          0.31470000      -0.01270000       0.59920000
   152  H          0.18530000       0.01270000       0.09920000
