data_FENTOH03
_symmetry_space_group_name_H-M    'P1'
_symmetry_Int_Tables_number       1
loop_
_symmetry_equiv_pos_site_id
_symmetry_equiv_pos_as_xyz
1 x,y,z
_cell_length_a                   14.449516
_cell_length_b                   8.64787
_cell_length_c                   10.55249
_cell_angle_alpha                90.0
_cell_angle_beta                 107.1529
_cell_angle_gamma                90.0
loop_
_atom_site_label
_atom_site_type_symbol
_atom_site_fract_x
_atom_site_fract_y
_atom_site_fract_z
     1  O          0.16064900       0.16311140       0.53685120
     2  O          0.83935100       0.66311140       0.96314880
     3  O          0.83935100       0.83688860       0.46314880
     4  O          0.16064900       0.33688860       0.03685120
     5  H          0.12420000       0.18330000       0.44730000
     6  H          0.87580000       0.68330000       0.05270000
     7  H          0.87580000       0.81670000       0.55270000
     8  H          0.12420000       0.31670000       0.94730000
     9  O          0.26136900       0.35412140       0.52322110
    10  O          0.73863100       0.85412140       0.97677890
    11  O          0.73863100       0.64587860       0.47677890
    12  O          0.26136900       0.14587860       0.02322110
    13  O          0.45612900       0.12264150       0.66939110
    14  O          0.54387100       0.62264150       0.83060890
    15  O          0.54387100       0.87735850       0.33060890
    16  O          0.45612900       0.37735850       0.16939110
    17  O          0.56881900       0.06311140       0.85882110
    18  O          0.43118100       0.56311140       0.64117890
    19  O          0.43118100       0.93688860       0.14117890
    20  O          0.56881900       0.43688860       0.35882110
    21  N          0.36555100       0.33329160       0.78188130
    22  N          0.63444900       0.83329160       0.71811870
    23  N          0.63444900       0.66670840       0.21811870
    24  N          0.36555100       0.16670840       0.28188130
    25  H          0.38174800       0.37802700       0.70364200
    26  H          0.61825200       0.87802700       0.79635800
    27  H          0.61825200       0.62197300       0.29635800
    28  H          0.38174800       0.12197300       0.20364200
    29  C          0.33730130       0.46492000       0.85482160
    30  C          0.66269870       0.96492000       0.64517840
    31  C          0.66269870       0.53508000       0.14517840
    32  C          0.33730130       0.03508000       0.35482160
    33  H          0.27591100       0.50901100       0.80062400
    34  H          0.72408900       0.00901100       0.69937600
    35  H          0.72408900       0.49098900       0.19937600
    36  H          0.27591100      -0.00901100       0.30062400
    37  H          0.38778400       0.54446400       0.87280900
    38  H          0.61221600       0.04446400       0.62719100
    39  H          0.61221600       0.45553600       0.12719100
    40  H          0.38778400       0.95553600       0.37280900
    41  H          0.32969400       0.42728300       0.93879700
    42  H          0.67030600       0.92728300       0.56120300
    43  H          0.67030600       0.57271700       0.06120300
    44  H          0.32969400       0.07271700       0.43879700
    45  C          0.28331120       0.22282000       0.72962150
    46  C          0.71668880       0.72282000       0.77037850
    47  C          0.71668880       0.77718000       0.27037850
    48  C          0.28331120       0.27718000       0.22962150
    49  H          0.23615600       0.23382400       0.78068200
    50  H          0.76384400       0.73382400       0.71931800
    51  H          0.76384400       0.76617600       0.21931800
    52  H          0.23615600       0.26617600       0.28068200
    53  H          0.30799500       0.11534500       0.74015700
    54  H          0.69200500       0.61534500       0.75984300
    55  H          0.69200500       0.88465500       0.25984300
    56  H          0.30799500       0.38465500       0.24015700
    57  C          0.23402120       0.25562000       0.58508150
    58  C          0.76597880       0.75562000       0.91491850
    59  C          0.76597880       0.74438000       0.41491850
    60  C          0.23402120       0.24438000       0.08508150
    61  C          0.45511120       0.25642000       0.86703150
    62  C          0.54488880       0.75642000       0.63296850
    63  C          0.54488880       0.74358000       0.13296850
    64  C          0.45511120       0.24358000       0.36703150
    65  H          0.44023600       0.20407100       0.94218900
    66  H          0.55976400       0.70407100       0.55781100
    67  H          0.55976400       0.79592900       0.05781100
    68  H          0.44023600       0.29592900       0.44218900
    69  H          0.50522200       0.33568500       0.90387100
    70  H          0.49477800       0.83568500       0.59612900
    71  H          0.49477800       0.66431500       0.09612900
    72  H          0.50522200       0.16431500       0.40387100
    73  C          0.49434130       0.13852000       0.78917160
    74  C          0.50565870       0.63852000       0.71082840
    75  C          0.50565870       0.86148000       0.21082840
    76  C          0.49434130       0.36148000       0.28917160
    77  O          0.63818900       0.11401140       0.09722110
    78  O          0.36181100       0.61401140       0.40277890
    79  O          0.36181100       0.88598860       0.90277890
    80  O          0.63818900       0.38598860       0.59722110
    81  H          0.62219400       0.10940100       0.01404800
    82  H          0.37780600       0.60940100       0.48595200
    83  H          0.37780600       0.89059900       0.98595200
    84  H          0.62219400       0.39059900       0.51404800
    85  O          0.77266900       0.15392150       0.26015110
    86  O          0.22733100       0.65392150       0.23984890
    87  O          0.22733100       0.84607850       0.73984890
    88  O          0.77266900       0.34607850       0.76015110
    89  O          0.05415900       0.19635130       0.30406110
    90  O          0.94584100       0.69635130       0.19593890
    91  O          0.94584100       0.80364870       0.69593890
    92  O          0.05415900       0.30364870       0.80406110
    93  O          0.09791900       0.97713870       0.22301110
    94  O          0.90208100       0.47713870       0.27698890
    95  O          0.90208100       0.02286130       0.77698890
    96  O          0.09791900       0.52286130       0.72301110
    97  N          0.88606100       0.21665150       0.10635130
    98  N          0.11393900       0.71665150       0.39364870
    99  N          0.11393900       0.78334850       0.89364870
   100  N          0.88606100       0.28334850       0.60635130
   101  H          0.89566600       0.27307100       0.19198700
   102  H          0.10433400       0.77307100       0.30801300
   103  H          0.10433400       0.72692900       0.80801300
   104  H          0.89566600       0.22692900       0.69198700
   105  C          0.93234130       0.30922000       0.02211160
   106  C          0.06765870       0.80922000       0.47788840
   107  C          0.06765870       0.69078000       0.97788840
   108  C          0.93234130       0.19078000       0.52211160
   109  H          0.92903300       0.25166500       0.94090000
   110  H          0.07096700       0.75166500       0.55910000
   111  H          0.07096700       0.74833500       0.05910000
   112  H          0.92903300       0.24833500       0.44090000
   113  H          0.00024700       0.32896500       0.07116900
   114  H         -0.00024700       0.82896500       0.42883100
   115  H         -0.00024700       0.67103500       0.92883100
   116  H          0.00024700       0.17103500       0.57116900
   117  H          0.89810400       0.40785700      -0.00103800
   118  H          0.10189600       0.90785700       0.50103800
   119  H          0.10189600       0.59214300       0.00103800
   120  H          0.89810400       0.09214300       0.49896200
   121  C          0.77958120       0.20092000       0.04131150
   122  C          0.22041880       0.70092000       0.45868850
   123  C          0.22041880       0.79908000       0.95868850
   124  C          0.77958120       0.29908000       0.54131150
   125  H          0.76774500       0.12269700       0.96976100
   126  H          0.23225500       0.62269700       0.53023900
   127  H          0.23225500       0.87730300       0.03023900
   128  H          0.76774500       0.37730300       0.46976100
   129  H          0.75287600       0.30083600       0.00104400
   130  H          0.24712400       0.80083600       0.49895600
   131  H          0.24712400       0.69916400      -0.00104400
   132  H          0.75287600       0.19916400       0.50104400
   133  C          0.72886130       0.15216190       0.14248150
   134  C          0.27113870       0.65216190       0.35751850
   135  C          0.27113870       0.84783810       0.85751850
   136  C          0.72886130       0.34783810       0.64248150
   137  C          0.93526120       0.06299190       0.13670160
   138  C          0.06473880       0.56299190       0.36329840
   139  C          0.06473880       0.93700810       0.86329840
   140  C          0.93526120       0.43700810       0.63670160
   141  H          0.93641400       0.01270300       0.05289200
   142  H          0.06358600       0.51270300       0.44710800
   143  H          0.06358600      -0.01270300       0.94710800
   144  H          0.93641400       0.48729700       0.55289200
   145  H          0.89799900      -0.00417700       0.17991600
   146  H          0.10200100       0.49582300       0.32008400
   147  H          0.10200100       0.00417700       0.82008400
   148  H          0.89799900       0.50417700       0.67991600
   149  C          0.03904120       0.07961190       0.22780150
   150  C          0.96095880       0.57961190       0.27219850
   151  C          0.96095880       0.92038810       0.77219850
   152  C          0.03904120       0.42038810       0.72780150
