data_FEPROJ
_symmetry_space_group_name_H-M    'P1'
_symmetry_Int_Tables_number       1
loop_
_symmetry_equiv_pos_site_id
_symmetry_equiv_pos_as_xyz
1 x,y,z
_cell_length_a                   5.61638
_cell_length_b                   10.085313
_cell_length_c                   13.1792
_cell_angle_alpha                78.22511
_cell_angle_beta                 82.13912
_cell_angle_gamma                85.48911
loop_
_atom_site_label
_atom_site_type_symbol
_atom_site_fract_x
_atom_site_fract_y
_atom_site_fract_z
     1  O          0.26008000       0.63296000       0.51604000
     2  O          0.73992000       0.36704000       0.48396000
     3  O          0.14698000       0.84126000       0.55133000
     4  O          0.85302000       0.15874000       0.44867000
     5  O          0.26069000       0.45815000       0.09934000
     6  O          0.73931000       0.54185000       0.90066000
     7  O          0.14109000       0.38815000       0.27004000
     8  O          0.85891000       0.61185000       0.72996000
     9  N          0.86359000       0.88485000       0.38244000
    10  N          0.13641000       0.11515000       0.61756000
    11  N          0.87489000       0.18815000       0.22284000
    12  N          0.12511000       0.81185000       0.77716000
    13  C          0.13581100       0.74994000       0.50095000
    14  C          0.86418900       0.25006000       0.49905000
    15  C         -0.00528900       0.76584000       0.41635000
    16  C          0.00528900       0.23416000       0.58365000
    17  C          0.75541200       0.87664000       0.29795000
    18  C          0.24458800       0.12336000       0.70205000
    19  C          0.60491200      -0.00757000       0.24195000
    20  C          0.39508800       0.00757000       0.75805000
    21  C          0.76661200       0.10107000       0.17765000
    22  C          0.23338800       0.89893000       0.82235000
    23  C          0.00941200       0.27697000       0.15015000
    24  C         -0.00941200       0.72303000       0.84985000
    25  C          0.13921200       0.37607000       0.17915000
    26  C          0.86078800       0.62393000       0.82085000
    27  C          0.40321500       0.55698000       0.12247000
    28  C          0.59678500       0.44302000       0.87753000
    29  C         -0.01388700       0.24587000       0.05616000
    30  C          0.01388700       0.75413000       0.94384000
    31  C          0.83991400       0.13858000       0.06875000
    32  C          0.16008600       0.86142000       0.93125000
    33  C          0.46171400       0.94113000       0.16996000
    34  C          0.53828600       0.05887000       0.83004000
    35  C          0.43131200       0.05427000       0.32476000
    36  C          0.56868800       0.94573000       0.67524000
    37  C          0.81471200       0.74703000       0.27736000
    38  C          0.18528800       0.25297000       0.72264000
    39  C          0.96511200       0.68103000       0.35065000
    40  C          0.03488800       0.31897000       0.64935000
    41  C          0.42531300       0.60972000       0.59475000
    42  C          0.57468700       0.39028000       0.40525000
    43  H          0.85170000       0.95660000       0.41170000
    44  H          0.14830000       0.04340000       0.58830000
    45  H          0.85900000       0.18650000       0.29040000
    46  H          0.14100000       0.81350000       0.70960000
    47  H          0.30040000       0.61690000       0.16180000
    48  H          0.69960000       0.38310000       0.83820000
    49  H          0.52830000       0.51100000       0.16410000
    50  H          0.47170000       0.48900000       0.83590000
    51  H          0.47870000       0.61060000       0.05710000
    52  H          0.52130000       0.38940000       0.94290000
    53  H          0.06060000       0.29180000      -0.00940000
    54  H          0.93940000       0.70820000       0.00940000
    55  H          0.79690000       0.09790000       0.01530000
    56  H          0.20310000       0.90210000       0.98470000
    57  H          0.57200000       0.90050000       0.11910000
    58  H          0.42800000       0.09950000       0.88090000
    59  H          0.35350000       0.87290000       0.21110000
    60  H          0.64650000       0.12710000       0.78890000
    61  H          0.36670000       0.01700000       0.13300000
    62  H          0.63330000       0.98300000       0.86700000
    63  H          0.33180000       0.98340000       0.36830000
    64  H          0.66820000       0.01660000       0.63170000
    65  H          0.52530000       0.09150000       0.36870000
    66  H          0.47470000       0.90850000       0.63130000
    67  H          0.32750000       0.12670000       0.28930000
    68  H          0.67250000       0.87330000       0.71070000
    69  H          0.76270000       0.71050000       0.22360000
    70  H          0.23730000       0.28950000       0.77640000
    71  H          0.03530000       0.59170000       0.35410000
    72  H          0.96470000       0.40830000       0.64590000
    73  H          0.54660000       0.67820000       0.57600000
    74  H          0.45340000       0.32180000       0.42400000
    75  H          0.33550000       0.61630000       0.66290000
    76  H          0.66450000       0.38370000       0.33710000
    77  H          0.50480000       0.51920000       0.59820000
    78  H          0.49520000       0.48080000       0.40180000
