data_FEPROJ02
_symmetry_space_group_name_H-M    'P1'
_symmetry_Int_Tables_number       1
loop_
_symmetry_equiv_pos_site_id
_symmetry_equiv_pos_as_xyz
1 x,y,z
_cell_length_a                   12.39969
_cell_length_b                   12.39969
_cell_length_c                   9.94238
_cell_angle_alpha                90.0
_cell_angle_beta                 90.0
_cell_angle_gamma                90.0
loop_
_atom_site_label
_atom_site_type_symbol
_atom_site_fract_x
_atom_site_fract_y
_atom_site_fract_z
     1  O          0.95312860       0.27801170       0.61184190
     2  O          0.27801170       0.04687140       0.38815810
     3  O          0.04687140       0.72198830       0.61184190
     4  O          0.72198830       0.95312860       0.38815810
     5  O          0.95312860       0.72198830       0.88815810
     6  O          0.72198830       0.04687140       0.11184190
     7  O          0.04687140       0.27801170       0.88815810
     8  O          0.27801170       0.95312860       0.11184190
     9  O          0.92418860       0.26960150       0.38820170
    10  O          0.26960150       0.07581140       0.61179830
    11  O          0.07581140       0.73039850       0.38820170
    12  O          0.73039850       0.92418860       0.61179830
    13  O          0.92418860       0.73039850       0.11179830
    14  O          0.73039850       0.07581140       0.88820170
    15  O          0.07581140       0.26960150       0.11179830
    16  O          0.26960150       0.92418860       0.88820170
    17  N          0.11475160       0.39534170       0.35102000
    18  N          0.39534170       0.88524840       0.64898000
    19  N          0.88524840       0.60465830       0.35102000
    20  N          0.60465830       0.11475160       0.64898000
    21  N          0.11475160       0.60465830       0.14898000
    22  N          0.60465830       0.88524840       0.85102000
    23  N          0.88524840       0.39534170       0.14898000
    24  N          0.39534170       0.11475160       0.85102000
    25  C          0.07082000       0.37072000       0.47412000
    26  C          0.37072000       0.92918000       0.52588000
    27  C          0.92918000       0.62928000       0.47412000
    28  C          0.62928000       0.07082000       0.52588000
    29  C          0.07082000       0.62928000       0.02588000
    30  C          0.62928000       0.92918000       0.97412000
    31  C          0.92918000       0.37072000       0.02588000
    32  C          0.37072000       0.07082000       0.97412000
    33  C          0.19932190       0.46387190       0.36743000
    34  C          0.46387190       0.80067810       0.63257000
    35  C          0.80067810       0.53612810       0.36743000
    36  C          0.53612810       0.19932190       0.63257000
    37  C          0.19932190       0.53612810       0.13257000
    38  C          0.53612810       0.80067810       0.86743000
    39  C          0.80067810       0.46387190       0.13257000
    40  C          0.46387190       0.19932190       0.86743000
    41  C          0.97658000       0.30232000       0.48402000
    42  C          0.30232000       0.02342000       0.51598000
    43  C          0.02342000       0.69768000       0.48402000
    44  C          0.69768000       0.97658000       0.51598000
    45  C          0.97658000       0.69768000       0.01598000
    46  C          0.69768000       0.02342000       0.98402000
    47  C          0.02342000       0.30232000       0.01598000
    48  C          0.30232000       0.97658000       0.98402000
    49  C          0.12742000       0.42652000       0.57052000
    50  C          0.42652000       0.87258000       0.42948000
    51  C          0.87258000       0.57348000       0.57052000
    52  C          0.57348000       0.12742000       0.42948000
    53  C          0.12742000       0.57348000       0.92948000
    54  C          0.57348000       0.87258000       0.07052000
    55  C          0.87258000       0.42652000       0.92948000
    56  C          0.42652000       0.12742000       0.07052000
    57  C          0.20742000       0.48552000       0.50373000
    58  C          0.48552000       0.79258000       0.49627000
    59  C          0.79258000       0.51448000       0.50373000
    60  C          0.51448000       0.20742000       0.49627000
    61  C          0.20742000       0.51448000      -0.00373000
    62  C          0.51448000       0.79258000       0.00373000
    63  C          0.79258000       0.48552000      -0.00373000
    64  C          0.48552000       0.20742000       0.00373000
    65  C          0.26813000       0.50000000       0.25000000
    66  C          0.50000000       0.73187000       0.75000000
    67  C          0.73187000       0.50000000       0.25000000
    68  C          0.50000000       0.26813000       0.75000000
    69  C          0.86008000       0.20963000       0.63133000
    70  C          0.20963000       0.13992000       0.36867000
    71  C          0.13992000       0.79037000       0.63133000
    72  C          0.79037000       0.86008000       0.36867000
    73  C          0.86008000       0.79037000       0.86867000
    74  C          0.79037000       0.13992000       0.13133000
    75  C          0.13992000       0.20963000       0.86867000
    76  C          0.20963000       0.86008000       0.13133000
    77  C          0.34022000       0.59473000       0.29533000
    78  C          0.59473000       0.65978000       0.70467000
    79  C          0.65978000       0.40527000       0.29533000
    80  C          0.40527000       0.34022000       0.70467000
    81  C          0.34022000       0.40527000       0.20467000
    82  C          0.40527000       0.65978000       0.79533000
    83  C          0.65978000       0.59473000       0.20467000
    84  C          0.59473000       0.34022000       0.79533000
    85  H          0.09920000       0.35820000       0.27630000
    86  H          0.35820000       0.90080000       0.72370000
    87  H          0.90080000       0.64180000       0.27630000
    88  H          0.64180000       0.09920000       0.72370000
    89  H          0.09920000       0.64180000       0.22370000
    90  H          0.64180000       0.90080000       0.77630000
    91  H          0.90080000       0.35820000       0.22370000
    92  H          0.35820000       0.09920000       0.77630000
    93  H          0.11470000       0.42520000       0.66480000
    94  H          0.42520000       0.88530000       0.33520000
    95  H          0.88530000       0.57480000       0.66480000
    96  H          0.57480000       0.11470000       0.33520000
    97  H          0.11470000       0.57480000       0.83520000
    98  H          0.57480000       0.88530000       0.16480000
    99  H          0.88530000       0.42520000       0.83520000
   100  H          0.42520000       0.11470000       0.16480000
   101  H          0.25840000       0.53230000       0.54470000
   102  H          0.53230000       0.74160000       0.45530000
   103  H          0.74160000       0.46770000       0.54470000
   104  H          0.46770000       0.25840000       0.45530000
   105  H          0.25840000       0.46770000       0.95530000
   106  H          0.46770000       0.74160000       0.04470000
   107  H          0.74160000       0.53230000       0.95530000
   108  H          0.53230000       0.25840000       0.04470000
   109  H          0.79700000       0.24280000       0.58880000
   110  H          0.24280000       0.20300000       0.41120000
   111  H          0.20300000       0.75720000       0.58880000
   112  H          0.75720000       0.79700000       0.41120000
   113  H          0.79700000       0.75720000       0.91120000
   114  H          0.75720000       0.20300000       0.08880000
   115  H          0.20300000       0.24280000       0.91120000
   116  H          0.24280000       0.79700000       0.08880000
   117  H          0.84660000       0.20070000       0.72780000
   118  H          0.20070000       0.15340000       0.27220000
   119  H          0.15340000       0.79930000       0.72780000
   120  H          0.79930000       0.84660000       0.27220000
   121  H          0.84660000       0.79930000       0.77220000
   122  H          0.79930000       0.15340000       0.22780000
   123  H          0.15340000       0.20070000       0.77220000
   124  H          0.20070000       0.84660000       0.22780000
   125  H          0.87360000       0.13890000       0.59060000
   126  H          0.13890000       0.12640000       0.40940000
   127  H          0.12640000       0.86110000       0.59060000
   128  H          0.86110000       0.87360000       0.40940000
   129  H          0.87360000       0.86110000       0.90940000
   130  H          0.86110000       0.12640000       0.09060000
   131  H          0.12640000       0.13890000       0.90940000
   132  H          0.13890000       0.87360000       0.09060000
   133  H          0.29470000       0.65360000       0.32880000
   134  H          0.65360000       0.70530000       0.67120000
   135  H          0.70530000       0.34640000       0.32880000
   136  H          0.34640000       0.29470000       0.67120000
   137  H          0.29470000       0.34640000       0.17120000
   138  H          0.34640000       0.70530000       0.82880000
   139  H          0.70530000       0.65360000       0.17120000
   140  H          0.65360000       0.29470000       0.82880000
   141  H          0.38290000       0.62040000       0.21870000
   142  H          0.62040000       0.61710000       0.78130000
   143  H          0.61710000       0.37960000       0.21870000
   144  H          0.37960000       0.38290000       0.78130000
   145  H          0.38290000       0.37960000       0.28130000
   146  H          0.37960000       0.61710000       0.71870000
   147  H          0.61710000       0.62040000       0.28130000
   148  H          0.62040000       0.38290000       0.71870000
   149  H          0.38860000       0.57050000       0.36700000
   150  H          0.57050000       0.61140000       0.63300000
   151  H          0.61140000       0.42950000       0.36700000
   152  H          0.42950000       0.38860000       0.63300000
   153  H          0.38860000       0.42950000       0.13300000
   154  H          0.42950000       0.61140000       0.86700000
   155  H          0.61140000       0.57050000       0.13300000
   156  H          0.57050000       0.38860000       0.86700000
