data_FEPROJ01
_symmetry_space_group_name_H-M    'P1'
_symmetry_Int_Tables_number       1
loop_
_symmetry_equiv_pos_site_id
_symmetry_equiv_pos_as_xyz
1 x,y,z
_cell_length_a                   10.25424
_cell_length_b                   10.25424
_cell_length_c                   24.640912
_cell_angle_alpha                90.0
_cell_angle_beta                 90.0
_cell_angle_gamma                120.0
loop_
_atom_site_label
_atom_site_type_symbol
_atom_site_fract_x
_atom_site_fract_y
_atom_site_fract_z
     1  O          0.29012000       0.06042000       0.95382200
     2  O          0.93958000       0.22970000       0.28715533
     3  O          0.77030000       0.70988000       0.62048867
     4  O          0.06042000       0.29012000       0.04617800
     5  O          0.70988000       0.77030000       0.37951133
     6  O          0.22970000       0.93958000       0.71284467
     7  O          0.49722000       0.28142000       0.93433300
     8  O          0.71858000       0.21580000       0.26766633
     9  O          0.78420000       0.50278000       0.60099967
    10  O          0.28142000       0.49722000       0.06566700
    11  O          0.50278000       0.78420000       0.39900033
    12  O          0.21580000       0.71858000       0.73233367
    13  O          0.74162000       0.03092000       0.01868800
    14  O          0.96908000       0.71070000       0.35202133
    15  O          0.28930000       0.25838000       0.68535467
    16  O          0.03092000       0.74162000       0.98131200
    17  O          0.25838000       0.28930000       0.31464533
    18  O          0.71070000       0.96908000       0.64797867
    19  O          0.51682000       0.82232000       0.00458800
    20  O          0.17768000       0.69450000       0.33792133
    21  O          0.30550000       0.48318000       0.67125467
    22  O          0.82232000       0.51682000      -0.00458800
    23  O          0.48318000       0.30550000       0.32874533
    24  O          0.69450000       0.17768000       0.66207867
    25  N          0.52903000       0.34723000       0.04681900
    26  N          0.65277000       0.18180000       0.38015233
    27  N          0.81820000       0.47097000       0.71348567
    28  N          0.34723000       0.52903000       0.95318100
    29  N          0.47097000       0.81820000       0.28651433
    30  N          0.18180000       0.65277000       0.61984767
    31  N          0.60883000       0.66813000       0.07888800
    32  N          0.33187000       0.94070000       0.41222133
    33  N          0.05930000       0.39117000       0.74555467
    34  N          0.66813000       0.60883000       0.92111200
    35  N          0.39117000       0.05930000       0.25444533
    36  N          0.94070000       0.33187000       0.58777867
    37  C          0.40563000       0.19533000       0.96695880
    38  C          0.80467000       0.21030000       0.30029213
    39  C          0.78970000       0.59437000       0.63362547
    40  C          0.19533000       0.40563000       0.03304120
    41  C          0.59437000       0.78970000       0.36637453
    42  C          0.21030000       0.80467000       0.69970787
    43  C          0.40753000       0.22283000       0.02445110
    44  C          0.77717000       0.18470000       0.35778443
    45  C          0.81530000       0.59247000       0.69111777
    46  C          0.22283000       0.40753000       0.97554890
    47  C          0.59247000       0.81530000       0.30888223
    48  C          0.18470000       0.77717000       0.64221557
    49  C          0.50604000       0.35163000       0.10107110
    50  C          0.64837000       0.15441000       0.43440443
    51  C          0.84559000       0.49396000       0.76773777
    52  C          0.35163000       0.50604000       0.89892890
    53  C          0.49396000       0.84559000       0.23226223
    54  C          0.15441000       0.64837000       0.56559557
    55  C          0.62524000       0.47264000       0.13662120
    56  C          0.52736000       0.15260000       0.46995453
    57  C          0.84740000       0.37476000       0.80328787
    58  C          0.47264000       0.62524000       0.86337880
    59  C          0.37476000       0.84740000       0.19671213
    60  C          0.15260000       0.52736000       0.53004547
    61  C          0.69294000       0.62493000       0.10898110
    62  C          0.37507000       0.06801000       0.44231443
    63  C          0.93199000       0.30706000       0.77564777
    64  C          0.62493000       0.69294000       0.89101890
    65  C          0.30706000       0.93199000       0.22435223
    66  C          0.06801000       0.37507000       0.55768557
    67  C          0.70003000       0.81313000       0.06070100
    68  C          0.18687000       0.88690000       0.39403433
    69  C          0.11310000       0.29997000       0.72736767
    70  C          0.81313000       0.70003000       0.93929900
    71  C          0.29997000       0.11310000       0.27263233
    72  C          0.88690000       0.18687000       0.60596567
    73  C          0.64153000       0.88493000       0.02556110
    74  C          0.11507000       0.75660000       0.35889443
    75  C          0.24340000       0.35847000       0.69222777
    76  C          0.88493000       0.64153000       0.97443890
    77  C          0.35847000       0.24340000       0.30777223
    78  C          0.75660000       0.11507000       0.64110557
    79  C          0.69434000       0.11504000       0.98516840
    80  C          0.88496000       0.57930000       0.31850173
    81  C          0.42070000       0.30566000       0.65183507
    82  C          0.11504000       0.69434000       0.01483160
    83  C          0.30566000       0.42070000       0.34816493
    84  C          0.57930000       0.88496000       0.68149827
    85  C          0.84313000       0.86213000       0.07952120
    86  C          0.13787000       0.98100000       0.41285453
    87  C          0.01900000       0.15687000       0.74618787
    88  C          0.86213000       0.84313000       0.92047880
    89  C          0.15687000       0.01900000       0.25381213
    90  C         -0.01900000       0.13787000       0.58714547
    91  C          0.83854000       0.74444000       0.10954120
    92  C          0.25556000       0.09410000       0.44287453
    93  C          0.90590000       0.16146000       0.77620787
    94  C          0.74444000       0.83854000       0.89045880
    95  C          0.16146000       0.90590000       0.22379213
    96  C          0.09410000       0.25556000       0.55712547
    97  C          0.55326000       0.47914000       0.19088120
    98  C          0.52086000       0.07412000       0.52421453
    99  C          0.92588000       0.44674000       0.85754787
   100  C          0.47914000       0.55326000       0.80911880
   101  C          0.44674000       0.92588000       0.14245213
   102  C          0.07412000       0.52086000       0.47578547
   103  C          0.75065000       0.43444000       0.14705160
   104  C          0.56556000       0.31621000       0.48038493
   105  C          0.68379000       0.24935000       0.81371827
   106  C          0.43444000       0.75065000       0.85294840
   107  C          0.24935000       0.68379000       0.18628173
   108  C          0.31621000       0.56556000       0.51961507
   109  C          0.36874000       0.22994000       0.11339120
   110  C          0.77006000       0.13880000       0.44672453
   111  C          0.86120000       0.63126000       0.78005787
   112  C          0.22994000       0.36874000       0.88660880
   113  C          0.63126000       0.86120000       0.21994213
   114  C          0.13880000       0.77006000       0.55327547
   115  C          0.30724000       0.14813000       0.06558120
   116  C          0.85187000       0.15911000       0.39891453
   117  C          0.84089000       0.69276000       0.73224787
   118  C          0.14813000       0.30724000       0.93441880
   119  C          0.69276000       0.84089000       0.26775213
   120  C          0.15911000       0.85187000       0.60108547
   121  C          0.28044000       0.02284000       0.89754880
   122  C          0.97716000       0.25760000       0.23088213
   123  C          0.74240000       0.71956000       0.56421547
   124  C          0.02284000       0.28044000       0.10245120
   125  C          0.71956000       0.74240000       0.43578453
   126  C          0.25760000       0.97716000       0.76911787
   127  H          0.61230000       0.40830000       0.02901200
   128  H          0.59170000       0.20400000       0.36234533
   129  H          0.79600000       0.38770000       0.69567867
   130  H          0.40830000       0.61230000       0.97098800
   131  H          0.38770000       0.79600000       0.30432133
   132  H          0.20400000       0.59170000       0.63765467
   133  H          0.50830000       0.61230000       0.07041100
   134  H          0.38770000       0.89600000       0.40374433
   135  H          0.10400000       0.49170000       0.73707767
   136  H          0.61230000       0.50830000       0.92958900
   137  H          0.49170000       0.10400000       0.26292233
   138  H          0.89600000       0.38770000       0.59625567
   139  H          0.60440000       0.11050000       0.00100000
   140  H          0.88950000       0.49390000       0.33433333
   141  H          0.50610000       0.39560000       0.66766667
   142  H          0.11050000       0.60440000      -0.00100000
   143  H          0.39560000       0.50610000       0.33233333
   144  H          0.49390000       0.88950000       0.66566667
   145  H          0.67100000       0.07160000       0.94860000
   146  H          0.92840000       0.59940000       0.28193333
   147  H          0.40060000       0.32900000       0.61526667
   148  H          0.07160000       0.67100000       0.05140000
   149  H          0.32900000       0.40060000       0.38473333
   150  H          0.59940000       0.92840000       0.71806667
   151  H          0.77550000       0.22020000       0.98320000
   152  H          0.77980000       0.55530000       0.31653333
   153  H          0.44470000       0.22450000       0.64986667
   154  H          0.22020000       0.77550000       0.01680000
   155  H          0.22450000       0.44470000       0.35013333
   156  H          0.55530000       0.77980000       0.68346667
   157  H          0.92920000       0.95810000       0.07330000
   158  H          0.04190000       0.97110000       0.40663333
   159  H          0.02890000       0.07080000       0.73996667
   160  H          0.95810000       0.92920000       0.92670000
   161  H          0.07080000       0.02890000       0.26003333
   162  H          0.97110000       0.04190000       0.59336667
   163  H          0.92160000       0.74630000       0.12730000
   164  H          0.25370000       0.17530000       0.46063333
   165  H          0.82470000       0.07840000       0.79396667
   166  H          0.74630000       0.92160000       0.87270000
   167  H          0.07840000       0.82470000       0.20603333
   168  H          0.17530000       0.25370000       0.53936667
   169  H          0.51780000       0.38420000       0.21050000
   170  H          0.61580000       0.13360000       0.54383333
   171  H          0.86640000       0.48220000       0.87716667
   172  H          0.38420000       0.51780000       0.78950000
   173  H          0.48220000       0.86640000       0.12283333
   174  H          0.13360000       0.61580000       0.45616667
   175  H          0.46800000       0.49460000       0.18360000
   176  H          0.50540000       0.97340000       0.51693333
   177  H          0.02660000       0.53200000       0.85026667
   178  H          0.49460000       0.46800000       0.81640000
   179  H          0.53200000       0.02660000       0.14973333
   180  H          0.97340000       0.50540000       0.48306667
   181  H          0.62820000       0.56260000       0.21290000
   182  H          0.43740000       0.06560000       0.54623333
   183  H          0.93440000       0.37180000       0.87956667
   184  H          0.56260000       0.62820000       0.78710000
   185  H          0.37180000       0.93440000       0.12043333
   186  H          0.06560000       0.43740000       0.45376667
   187  H          0.79700000       0.43280000       0.11250000
   188  H          0.56720000       0.36420000       0.44583333
   189  H          0.63580000       0.20300000       0.77916667
   190  H          0.43280000       0.79700000       0.88750000
   191  H          0.20300000       0.63580000       0.22083333
   192  H          0.36420000       0.56720000       0.55416667
   193  H          0.70740000       0.33540000       0.16440000
   194  H          0.66460000       0.37200000       0.49773333
   195  H          0.62800000       0.29260000       0.83106667
   196  H          0.33540000       0.70740000       0.83560000
   197  H          0.29260000       0.62800000       0.16893333
   198  H          0.37200000       0.66460000       0.50226667
   199  H          0.82720000       0.51080000       0.17090000
   200  H          0.48920000       0.31640000       0.50423333
   201  H          0.68360000       0.17280000       0.83756667
   202  H          0.51080000       0.82720000       0.82910000
   203  H          0.17280000       0.68360000       0.16243333
   204  H          0.31640000       0.48920000       0.49576667
   205  H          0.32310000       0.20520000       0.14830000
   206  H          0.79480000       0.11790000       0.48163333
   207  H          0.88210000       0.67690000       0.81496667
   208  H          0.20520000       0.32310000       0.85170000
   209  H          0.67690000       0.88210000       0.18503333
   210  H          0.11790000       0.79480000       0.51836667
   211  H          0.21330000       0.05750000       0.06220000
   212  H          0.94250000       0.15580000       0.39553333
   213  H          0.84420000       0.78670000       0.72886667
   214  H          0.05750000       0.21330000       0.93780000
   215  H          0.78670000       0.84420000       0.27113333
   216  H          0.15580000       0.94250000       0.60446667
   217  H          0.37530000       0.03060000       0.88570000
   218  H          0.96940000       0.34470000       0.21903333
   219  H          0.65530000       0.62470000       0.55236667
   220  H          0.03060000       0.37530000       0.11430000
   221  H          0.62470000       0.65530000       0.44763333
   222  H          0.34470000       0.96940000       0.78096667
   223  H          0.26140000       0.09240000       0.87630000
   224  H          0.90760000       0.16900000       0.20963333
   225  H          0.83100000       0.73860000       0.54296667
   226  H          0.09240000       0.26140000       0.12370000
   227  H          0.73860000       0.83100000       0.45703333
   228  H          0.16900000       0.90760000       0.79036667
   229  H          0.19780000       0.91950000       0.89200000
   230  H          0.08050000       0.27830000       0.22533333
   231  H          0.72170000       0.80220000       0.55866667
   232  H          0.91950000       0.19780000       0.10800000
   233  H          0.80220000       0.72170000       0.44133333
   234  H          0.27830000       0.08050000       0.77466667
