data_FESVEH01
_symmetry_space_group_name_H-M    'P1'
_symmetry_Int_Tables_number       1
loop_
_symmetry_equiv_pos_site_id
_symmetry_equiv_pos_as_xyz
1 x,y,z
_cell_length_a                   7.33842
_cell_length_b                   18.57746
_cell_length_c                   13.32994
_cell_angle_alpha                90.0
_cell_angle_beta                 90.102418
_cell_angle_gamma                90.0
loop_
_atom_site_label
_atom_site_type_symbol
_atom_site_fract_x
_atom_site_fract_y
_atom_site_fract_z
     1  C          0.36196000       0.34952000       0.44813000
     2  C          0.63804000       0.84952000       0.55187000
     3  H          0.26940000       0.36550000       0.49260000
     4  H          0.73060000       0.86550000       0.50740000
     5  C          0.47606000       0.39952000       0.39903000
     6  C          0.52394000       0.89952000       0.60097000
     7  H          0.45950000       0.44950000       0.41070000
     8  H          0.54050000       0.94950000       0.58930000
     9  C          0.61146000       0.37703000       0.33413000
    10  C          0.38854000       0.87703000       0.66587000
    11  H          0.68530000       0.41150000       0.30090000
    12  H          0.31470000       0.91150000       0.69910000
    13  C          0.63936000       0.30432000       0.31763000
    14  C          0.36064000       0.80432000       0.68237000
    15  H          0.73330000       0.28840000       0.27400000
    16  H          0.26670000       0.78840000       0.72600000
    17  C          0.65746000       0.13132000       0.31243000
    18  C          0.34254000       0.63132000       0.68757000
    19  H          0.74580000       0.15110000       0.26830000
    20  H          0.25420000       0.65110000       0.73170000
    21  C          0.64556000       0.05743000       0.32623000
    22  C          0.35444000       0.55743000       0.67377000
    23  H          0.72460000       0.02610000       0.29060000
    24  H          0.27540000       0.52610000       0.70940000
    25  C          0.51646000       0.02923000       0.39283000
    26  C          0.48354000       0.52923000       0.60717000
    27  H          0.50900000       0.97860000       0.40240000
    28  H          0.49100000       0.47860000       0.59760000
    29  C          0.40056000       0.07392000       0.44453000
    30  C          0.59944000       0.57392000       0.55547000
    31  H          0.31890000       0.05400000       0.49240000
    32  H          0.68110000       0.55400000       0.50760000
    33  C          0.29355000       0.21092000       0.46843000
    34  C          0.70645000       0.71092000       0.53157000
    35  C          0.38746000       0.27642000       0.43023000
    36  C          0.61254000       0.77642000       0.56977000
    37  C          0.52796000       0.25522000       0.36573000
    38  C          0.47204000       0.75522000       0.63427000
    39  C          0.53786000       0.17592000       0.36413000
    40  C          0.46214000       0.67592000       0.63587000
    41  C          0.40116000       0.14892000       0.42733000
    42  C          0.59884000       0.64892000       0.57267000
    43  C          0.96084000       0.31052000       0.74863000
    44  C          0.03916000       0.81052000       0.25137000
    45  H          0.95770000       0.30650000       0.81960000
    46  H          0.04230000       0.80650000       0.18040000
    47  C          0.88614000       0.37023000       0.70194000
    48  C          0.11386000       0.87023000       0.29806000
    49  H          0.83530000       0.40770000       0.74140000
    50  H          0.16470000       0.90770000       0.25860000
    51  C          0.88454000       0.37603000       0.59794000
    52  C          0.11546000       0.87603000       0.40206000
    53  H          0.82500000       0.41560000       0.56680000
    54  H          0.17500000       0.91560000       0.43320000
    55  C          0.96994000       0.32423000       0.53954000
    56  C          0.03006000       0.82423000       0.46046000
    57  H          0.97120000       0.32880000       0.46850000
    58  H          0.02880000       0.82880000       0.53150000
    59  C         -0.00056000       0.08332000       0.50803000
    60  C          0.00056000       0.58332000       0.49197000
    61  H         -0.00820000       0.09030000       0.43750000
    62  H          0.00820000       0.59030000       0.56250000
    63  C          0.93764000       0.01952000       0.55043000
    64  C          0.06236000       0.51952000       0.44957000
    65  H          0.88480000       0.98340000       0.50910000
    66  H          0.11520000       0.48340000       0.49090000
    67  C          0.95284000       0.00892000       0.65113000
    68  C          0.04716000       0.50892000       0.34887000
    69  H          0.92210000       0.96330000       0.67840000
    70  H          0.07790000       0.46330000       0.32160000
    71  C          0.01276000       0.06362000       0.71513000
    72  C         -0.01276000       0.56362000       0.28487000
    73  H          0.01690000       0.05610000       0.78560000
    74  H         -0.01690000       0.55610000       0.21440000
    75  C          0.04146000       0.25612000       0.69093000
    76  C          0.95854000       0.75612000       0.30907000
    77  C          0.05385000       0.26562000       0.58553000
    78  C          0.94615000       0.76562000       0.41447000
    79  C          0.14956000       0.20592000       0.53233000
    80  C          0.85044000       0.70592000       0.46767000
    81  C          0.07365000       0.13732000       0.56943000
    82  C          0.92635000       0.63732000       0.43057000
    83  C          0.06626000       0.12962000       0.67413000
    84  C          0.93374000       0.62962000       0.32587000
    85  C          0.10786000       0.18333000       0.84003000
    86  C          0.89214000       0.68333000       0.15997000
    87  H          0.16300000       0.22640000       0.86950000
    88  H          0.83700000       0.72640000       0.13050000
    89  H          0.18110000       0.14100000       0.85740000
    90  H          0.81890000       0.64100000       0.14260000
    91  H         -0.01600000       0.17730000       0.86620000
    92  H          0.01600000       0.67730000       0.13380000
    93  N          0.10075000       0.19085180       0.73252000
    94  N          0.89925000       0.69085180       0.26748000
    95  C          0.89634000       0.09952000       0.08533000
    96  C          0.10366000       0.59952000       0.91467000
    97  H          0.81100000       0.07470000       0.04430000
    98  H          0.18900000       0.57470000       0.95570000
    99  C          0.01976000       0.06043000       0.14633000
   100  C          0.98024000       0.56043000       0.85367000
   101  H          0.01770000       0.00930000       0.14550000
   102  H         -0.01770000       0.50930000       0.85450000
   103  C          0.14476000       0.09663000       0.20793000
   104  C          0.85524000       0.59663000       0.79207000
   105  H          0.22250000       0.07000000       0.25110000
   106  H          0.77750000       0.57000000       0.74890000
   107  C          0.15536000       0.17073000       0.20603000
   108  C          0.84464000       0.67073000       0.79397000
   109  H          0.24220000       0.19540000       0.24620000
   110  H          0.75780000       0.69540000       0.75380000
   111  C          0.14616000       0.33942000       0.15883000
   112  C          0.85384000       0.83942000       0.84117000
   113  H          0.23800000       0.32880000       0.20690000
   114  H          0.76200000       0.82880000       0.79310000
   115  C          0.12496000       0.40923000       0.12293000
   116  C          0.87504000       0.90923000       0.87707000
   117  H          0.20240000       0.44680000       0.14550000
   118  H          0.79760000       0.94680000       0.85450000
   119  C         -0.01186000       0.42273000       0.05363000
   120  C          0.01186000       0.92273000       0.94637000
   121  H          0.97490000       0.47030000       0.02880000
   122  H          0.02510000       0.97030000       0.97120000
   123  C          0.86904000       0.36992000       0.01843000
   124  C          0.13096000       0.86992000       0.98157000
   125  H          0.77560000       0.38170000       0.97180000
   126  H          0.22440000       0.88170000       0.02820000
   127  C          0.79394000       0.22972000       0.03153000
   128  C          0.20606000       0.72972000       0.96847000
   129  C          0.90074000       0.17392000       0.08563000
   130  C          0.09926000       0.67392000       0.91437000
   131  C          0.03686000       0.20882000       0.14423000
   132  C          0.96314000       0.70882000       0.85577000
   133  C          0.03226000       0.28572000       0.12383000
   134  C          0.96774000       0.78572000       0.87617000
   135  C          0.88984000       0.29862000       0.05323000
   136  C          0.11016000       0.79862000       0.94677000
   137  C          0.50384000       0.06162000       0.81163000
   138  C          0.49616000       0.56162000       0.18837000
   139  H          0.50760000       0.04760000       0.74310000
   140  H          0.49240000       0.54760000       0.25690000
   141  C          0.44024000       0.01422000       0.88423000
   142  C          0.55976000       0.51422000       0.11577000
   143  H          0.40120000       0.96740000       0.86500000
   144  H          0.59880000       0.46740000       0.13500000
   145  C          0.43283000       0.03432000       0.98543000
   146  C          0.56717000       0.53432000       0.01457000
   147  H          0.38350000       0.00250000       0.03410000
   148  H          0.61650000       0.50250000       0.96590000
   149  C          0.49794000       0.10062000       0.01323000
   150  C          0.50206000       0.60062000       0.98677000
   151  H          0.49090000       0.11470000       0.08160000
   152  H          0.50910000       0.61470000       0.91840000
   153  C          0.47654000       0.33602000       0.93783000
   154  C          0.52346000       0.83602000       0.06217000
   155  H          0.47860000       0.34710000       0.00740000
   156  H          0.52140000       0.84710000      -0.00740000
   157  C          0.39194000       0.38262000       0.87064000
   158  C          0.60806000       0.88262000       0.12936000
   159  H          0.33400000       0.42520000       0.89390000
   160  H          0.66600000       0.92520000       0.10610000
   161  C          0.39334000       0.36612000       0.76883000
   162  C          0.60666000       0.86612000       0.23117000
   163  H          0.34160000       0.39910000       0.72240000
   164  H          0.65840000       0.89910000       0.27760000
   165  C          0.46764000       0.30342000       0.73413000
   166  C          0.53236000       0.80342000       0.26587000
   167  H          0.46750000       0.29350000       0.66420000
   168  H          0.53250000       0.79350000       0.33580000
   169  C          0.56254000       0.13062000       0.84073000
   170  C          0.43746000       0.63062000       0.15927000
   171  C          0.57454000       0.14792000       0.94343000
   172  C          0.42546000       0.64792000       0.05657000
   173  C          0.64785000       0.21912000       0.96653000
   174  C          0.35215000       0.71912000       0.03347000
   175  C          0.55844000       0.27292000       0.90343000
   176  C          0.44156000       0.77292000       0.09657000
   177  C          0.54394000       0.25382000       0.80083000
   178  C          0.45606000       0.75382000       0.19917000
   179  C          0.60384000       0.16742000       0.66583000
   180  C          0.39616000       0.66742000       0.33417000
   181  H          0.47820000       0.16390000       0.64130000
   182  H          0.52180000       0.66390000       0.35870000
   183  H          0.66570000       0.12120000       0.65620000
   184  H          0.33430000       0.62120000       0.34380000
   185  H          0.66840000       0.20500000       0.62840000
   186  H          0.33160000       0.70500000       0.37160000
   187  N          0.60295000       0.18551180       0.77182000
   188  N          0.39705000       0.68551180       0.22818000
