data_FESVEH
_symmetry_space_group_name_H-M    'P1'
_symmetry_Int_Tables_number       1
loop_
_symmetry_equiv_pos_site_id
_symmetry_equiv_pos_as_xyz
1 x,y,z
_cell_length_a                   7.3796
_cell_length_b                   22.71616
_cell_length_c                   9.3817
_cell_angle_alpha                90.0
_cell_angle_beta                 111.142
_cell_angle_gamma                90.0
loop_
_atom_site_label
_atom_site_type_symbol
_atom_site_fract_x
_atom_site_fract_y
_atom_site_fract_z
     1  N          0.02130000       0.18727000       0.60420000
     2  N          0.47870000       0.68727000       0.39580000
     3  N         -0.02130000       0.81273000       0.39580000
     4  N          0.52130000       0.31273000       0.60420000
     5  C          0.08940000       0.14401000       0.39630000
     6  C          0.41060000       0.64401000       0.60370000
     7  C          0.91060000       0.85599000       0.60370000
     8  C          0.58940000       0.35599000       0.39630000
     9  C          0.88560000       0.22999000       0.34930000
    10  C          0.61440000       0.72999000       0.65070000
    11  C          0.11440000       0.77001000       0.65070000
    12  C          0.38560000       0.27001000       0.34930000
    13  H          0.81530000       0.25720000       0.38160000
    14  H          0.68470000       0.75720000       0.61840000
    15  H          0.18470000       0.74280000       0.61840000
    16  H          0.31530000       0.24280000       0.38160000
    17  C          0.87660000       0.22961100       0.20030000
    18  C          0.62340000       0.72961100       0.79970000
    19  C          0.12340000       0.77038900       0.79970000
    20  C          0.37660000       0.27038900       0.20030000
    21  H          0.79900000       0.25640000       0.13030000
    22  H          0.70100000       0.75640000       0.86970000
    23  H          0.20100000       0.74360000       0.86970000
    24  H          0.29900000       0.24360000       0.13030000
    25  C          0.00530000       0.18811100       0.45330000
    26  C          0.49470000       0.68811100       0.54670000
    27  C         -0.00530000       0.81188900       0.54670000
    28  C          0.50530000       0.31188900       0.45330000
    29  C          0.91160000       0.22981100       0.65520000
    30  C          0.58840000       0.72981100       0.34480000
    31  C          0.08840000       0.77018900       0.34480000
    32  C          0.41160000       0.27018900       0.65520000
    33  H          0.90230000       0.21680000       0.74990000
    34  H          0.59770000       0.71680000       0.25010000
    35  H          0.09770000       0.78320000       0.25010000
    36  H          0.40230000       0.28320000       0.74990000
    37  H          0.78360000       0.23360000       0.57960000
    38  H          0.71640000       0.73360000       0.42040000
    39  H          0.21640000       0.76640000       0.42040000
    40  H          0.28360000       0.26640000       0.57960000
    41  H         -0.02370000       0.26720000       0.67070000
    42  H          0.52370000       0.76720000       0.32930000
    43  H          0.02370000       0.73280000       0.32930000
    44  H          0.47630000       0.23280000       0.67070000
    45  C          0.56540000       0.13581000       0.90530000
    46  C          0.93460000       0.63581000       0.09470000
    47  C          0.43460000       0.86419000       0.09470000
    48  C          0.06540000       0.36419000       0.90530000
    49  H          0.68990000       0.12640000       0.96990000
    50  H          0.81010000       0.62640000       0.03010000
    51  H          0.31010000       0.87360000       0.03010000
    52  H          0.18990000       0.37360000       0.96990000
    53  C          0.09430000       0.14671100       0.25130000
    54  C          0.40570000       0.64671100       0.74870000
    55  C          0.90570000       0.85328900       0.74870000
    56  C          0.59430000       0.35328900       0.25130000
    57  H          0.16990000       0.12030000       0.22080000
    58  H          0.33010000       0.62030000       0.77920000
    59  H          0.83010000       0.87970000       0.77920000
    60  H          0.66990000       0.37970000       0.22080000
    61  C          0.28130000       0.94001000       0.46720000
    62  C          0.21870000       0.44001000       0.53280000
    63  C          0.71870000       0.05999000       0.53280000
    64  C          0.78130000       0.55999000       0.46720000
    65  C          0.45630000       0.88048900       0.68130000
    66  C          0.04370000       0.38048900       0.31870000
    67  C          0.54370000       0.11951100       0.31870000
    68  C          0.95630000       0.61951100       0.68130000
    69  H          0.50450000       0.84420000       0.72370000
    70  H         -0.00450000       0.34420000       0.27630000
    71  H          0.49550000       0.15580000       0.27630000
    72  H          0.00450000       0.65580000       0.72370000
    73  C          0.19040000       0.16589000       0.71230000
    74  C          0.30960000       0.66589000       0.28770000
    75  C          0.80960000       0.83411000       0.28770000
    76  C          0.69040000       0.33411000       0.71230000
    77  C          0.29340000       0.12461000       0.66130000
    78  C          0.20660000       0.62461000       0.33870000
    79  C          0.70660000       0.87539000       0.33870000
    80  C          0.79340000       0.37539000       0.66130000
    81  C         -0.01130000       0.18791100       0.15530000
    82  C          0.51130000       0.68791100       0.84470000
    83  C          0.01130000       0.81208900       0.84470000
    84  C          0.48870000       0.31208900       0.15530000
    85  H         -0.01050000       0.18920000       0.05560000
    86  H          0.51050000       0.68920000       0.94440000
    87  H          0.01050000       0.81080000       0.94440000
    88  H          0.48950000       0.31080000       0.05560000
    89  C          0.49040000       0.10761100       0.75630000
    90  C          0.00960000       0.60761100       0.24370000
    91  C          0.50960000       0.89238900       0.24370000
    92  C         -0.00960000       0.39238900       0.75630000
    93  H          0.56240000       0.08070000       0.72430000
    94  H          0.93760000       0.58070000       0.27570000
    95  H          0.43760000       0.91930000       0.27570000
    96  H          0.06240000       0.41930000       0.72430000
    97  C          0.83670000       0.99368900       0.06820000
    98  C          0.66330000       0.49368900       0.93180000
    99  C          0.16330000       0.00631100       0.93180000
   100  C          0.33670000       0.50631100       0.06820000
   101  H          0.73010000       0.00650000      -0.01490000
   102  H          0.76990000       0.50650000       0.01490000
   103  H          0.26990000       0.99350000       0.01490000
   104  H          0.23010000       0.49350000      -0.01490000
   105  C          0.48030000       0.92628900       0.77730000
   106  C          0.01970000       0.42628900       0.22270000
   107  C          0.51970000       0.07371100       0.22270000
   108  C         -0.01970000       0.57371100       0.77730000
   109  H          0.54390000       0.92100000       0.88110000
   110  H          0.95610000       0.42100000       0.11890000
   111  H          0.45610000       0.07900000       0.11890000
   112  H          0.04390000       0.57900000       0.88110000
   113  C          0.20130000       0.09679000       0.51020000
   114  C          0.29870000       0.59679000       0.48980000
   115  C          0.79870000       0.90321000       0.48980000
   116  C          0.70130000       0.40321000       0.51020000
   117  C          0.27340000       0.18951000       0.86020000
   118  C          0.22660000       0.68951000       0.13980000
   119  C          0.72660000       0.81049000       0.13980000
   120  C          0.77340000       0.31049000       0.86020000
   121  H          0.20130000       0.21530000       0.89590000
   122  H          0.29870000       0.71530000       0.10410000
   123  H          0.79870000       0.78470000       0.10410000
   124  H          0.70130000       0.28470000       0.89590000
   125  C          0.30930000       0.98859000       0.56520000
   126  C          0.19070000       0.48859000       0.43480000
   127  C          0.69070000       0.01141000       0.43480000
   128  C          0.80930000       0.51141000       0.56520000
   129  C          0.90270000       0.93569000       0.07120000
   130  C          0.59730000       0.43569000       0.92880000
   131  C          0.09730000       0.06431000       0.92880000
   132  C          0.40270000       0.56431000       0.07120000
   133  H          0.84060000       0.91000000      -0.00930000
   134  H          0.65940000       0.41000000       0.00930000
   135  H          0.15940000       0.09000000       0.00930000
   136  H          0.34060000       0.59000000      -0.00930000
   137  C          0.36540000       0.88339000       0.52430000
   138  C          0.13460000       0.38339000       0.47570000
   139  C          0.63460000       0.11661000       0.47570000
   140  C          0.86540000       0.61661000       0.52430000
   141  H          0.35780000       0.85140000       0.46070000
   142  H          0.14220000       0.35140000       0.53930000
   143  H          0.64220000       0.14860000       0.53930000
   144  H          0.85780000       0.64860000       0.46070000
   145  C          0.46440000       0.17469000       0.95430000
   146  C          0.03560000       0.67469000       0.04570000
   147  C          0.53560000       0.82531000       0.04570000
   148  C          0.96440000       0.32531000       0.95430000
   149  H          0.51980000       0.19180000       0.04990000
   150  H         -0.01980000       0.69180000       0.95010000
   151  H          0.48020000       0.80820000       0.95010000
   152  H          0.01980000       0.30820000       0.04990000
   153  C          0.14330000       0.95219000       0.31530000
   154  C          0.35670000       0.45219000       0.68470000
   155  C          0.85670000       0.04781000       0.68470000
   156  C          0.64330000       0.54781000       0.31530000
   157  C          0.92970000       0.03341200       0.19030000
   158  C          0.57030000       0.53341200       0.80970000
   159  C          0.07030000       0.96658800       0.80970000
   160  C          0.42970000       0.46658800       0.19030000
   161  H          0.88760000       0.07210000       0.18800000
   162  H          0.61240000       0.57210000       0.81200000
   163  H          0.11240000       0.92790000       0.81200000
   164  H          0.38760000       0.42790000       0.18800000
   165  C          0.09140000       0.01191100       0.31730000
   166  C          0.40860000       0.51191100       0.68270000
   167  C          0.90860000       0.98808900       0.68270000
   168  C          0.59140000       0.48808900       0.31730000
   169  C          0.06030000       0.91732000       0.19220000
   170  C          0.43970000       0.41732000       0.80780000
   171  C          0.93970000       0.08268000       0.80780000
   172  C          0.56030000       0.58268000       0.19220000
   173  H          0.11120000       0.88010000       0.19020000
   174  H          0.38880000       0.38010000       0.80980000
   175  H          0.88880000       0.11990000       0.80980000
   176  H          0.61120000       0.61990000       0.19020000
   177  C          0.41040000       0.98288900       0.71920000
   178  C          0.08960000       0.48288900       0.28080000
   179  C          0.58960000       0.01711100       0.28080000
   180  C          0.91040000       0.51711100       0.71920000
   181  H          0.43110000       0.01520000       0.78410000
   182  H          0.06890000       0.51520000       0.21590000
   183  H          0.56890000       0.98480000       0.21590000
   184  H          0.93110000       0.48480000       0.78410000
   185  C          0.20030000       0.03849000       0.46720000
   186  C          0.29970000       0.53849000       0.53280000
   187  C          0.79970000       0.96151000       0.53280000
   188  C          0.70030000       0.46151000       0.46720000
