data_FESVEH02
_symmetry_space_group_name_H-M    'P1'
_symmetry_Int_Tables_number       1
loop_
_symmetry_equiv_pos_site_id
_symmetry_equiv_pos_as_xyz
1 x,y,z
_cell_length_a                   8.51372
_cell_length_b                   21.96306
_cell_length_c                   9.87763
_cell_angle_alpha                90.0
_cell_angle_beta                 104.406117
_cell_angle_gamma                90.0
loop_
_atom_site_label
_atom_site_type_symbol
_atom_site_fract_x
_atom_site_fract_y
_atom_site_fract_z
     1  C          0.29852160       0.98783400       0.26505120
     2  C          0.20147840       0.48783400       0.73494880
     3  C          0.70147840       0.01216600       0.73494880
     4  C          0.79852160       0.51216600       0.26505120
     5  H          0.33731700       0.94654000       0.29951300
     6  H          0.16268300       0.44654000       0.70048700
     7  H          0.66268300       0.05346000       0.70048700
     8  H          0.83731700       0.55346000       0.29951300
     9  C          0.27939160       0.02990600       0.36525130
    10  C          0.22060840       0.52990600       0.63474870
    11  C          0.72060840       0.97009400       0.63474870
    12  C          0.77939160       0.47009400       0.36525130
    13  H          0.30781800       0.01986000       0.46641500
    14  H          0.19218200       0.51986000       0.53358500
    15  H          0.69218200       0.98014000       0.53358500
    16  H          0.80781800       0.48014000       0.46641500
    17  C          0.21824170       0.08793600       0.32722130
    18  C          0.28175830       0.58793600       0.67277870
    19  C          0.78175830       0.91206400       0.67277870
    20  C          0.71824170       0.41206400       0.32722130
    21  H          0.19881900       0.11786000       0.39711500
    22  H          0.30118100       0.61786000       0.60288500
    23  H          0.80118100       0.88214000       0.60288500
    24  H          0.69881900       0.38214000       0.39711500
    25  C          0.17449160       0.10462600       0.18745130
    26  C          0.32550840       0.60462600       0.81254870
    27  C          0.82550840       0.89537400       0.81254870
    28  C          0.67449160       0.39537400       0.18745130
    29  H          0.12441800       0.14576000       0.15871400
    30  H          0.37558200       0.64576000       0.84128600
    31  H          0.87558200       0.85424000       0.84128600
    32  H          0.62441800       0.35424000       0.15871400
    33  C          0.07543160       0.11698500       0.85429870
    34  C          0.42456840       0.61698500       0.14570130
    35  C          0.92456840       0.88301500       0.14570130
    36  C          0.57543160       0.38301500       0.85429870
    37  H          0.04861800       0.15446000       0.89898600
    38  H          0.45138200       0.65446000       0.10101400
    39  H          0.95138200       0.84554000       0.10101400
    40  H          0.54861800       0.34554000       0.89898600
    41  C          0.03507170       0.11091600       0.70991870
    42  C          0.46492830       0.61091600       0.29008130
    43  C          0.96492830       0.88908400       0.29008130
    44  C          0.53507170       0.38908400       0.70991870
    45  H          0.97928200       0.14506000       0.64978500
    46  H          0.52071800       0.64506000       0.35021500
    47  H          0.02071800       0.85494000       0.35021500
    48  H          0.47928200       0.35494000       0.64978500
    49  C          0.06676160       0.05656600       0.64946870
    50  C          0.43323840       0.55656600       0.35053130
    51  C          0.93323840       0.94343400       0.35053130
    52  C          0.56676160       0.44343400       0.64946870
    53  H          0.03551700       0.05056000       0.54468600
    54  H          0.46448300       0.55056000       0.45531400
    55  H          0.96448300       0.94944000       0.45531400
    56  H          0.53551700       0.44944000       0.54468600
    57  C          0.14105160       0.00784600       0.73133870
    58  C          0.35894840       0.50784600       0.26866130
    59  C          0.85894840       0.99215400       0.26866130
    60  C          0.64105160       0.49215400       0.73133870
    61  H          0.15711700       0.96904000       0.68338700
    62  H          0.34288300       0.46904000       0.31661300
    63  H          0.84288300       0.03096000       0.31661300
    64  H          0.65711700       0.53096000       0.68338700
    65  C          0.26142150       0.97056500      -0.00796120
    66  C          0.23857850       0.47056500       0.00796120
    67  C          0.73857850       0.02943500       0.00796120
    68  C          0.76142150       0.52943500      -0.00796120
    69  C          0.25883150       0.00423500       0.12360120
    70  C          0.24116850       0.50423500       0.87639880
    71  C          0.74116850      -0.00423500       0.87639880
    72  C          0.75883150       0.49576500       0.12360120
    73  C          0.19491140       0.06285500       0.08755120
    74  C          0.30508860       0.56285500       0.91244880
    75  C          0.80508860       0.93714500       0.91244880
    76  C          0.69491140       0.43714500       0.08755120
    77  C          0.14985150       0.06863500       0.93591880
    78  C          0.35014850       0.56863500       0.06408120
    79  C          0.85014850       0.93136500       0.06408120
    80  C          0.64985150       0.43136500       0.93591880
    81  C          0.18581150       0.01349500       0.87644880
    82  C          0.31418850       0.51349500       0.12355120
    83  C          0.81418850       0.98650500       0.12355120
    84  C          0.68581150       0.48650500       0.87644880
    85  C          0.31894160       0.77259400       0.19811130
    86  C          0.18105840       0.27259400       0.80188870
    87  C          0.68105840       0.22740600       0.80188870
    88  C          0.81894160       0.72740600       0.19811130
    89  H          0.25761900       0.73484000       0.19391500
    90  H          0.24238100       0.23484000       0.80608500
    91  H          0.74238100       0.26516000       0.80608500
    92  H          0.75761900       0.76516000       0.19391500
    93  C          0.44515170       0.78504400       0.31381130
    94  C          0.05484830       0.28504400       0.68618870
    95  C          0.55484830       0.21495600       0.68618870
    96  C          0.94515170       0.71495600       0.31381130
    97  H          0.47121800       0.75494000       0.39741500
    98  H          0.02878200       0.25494000       0.60258500
    99  H          0.52878200       0.24506000       0.60258500
   100  H          0.97121800       0.74506000       0.39741500
   101  C          0.54104170       0.83648400       0.31799130
   102  C          0.95895830       0.33648400       0.68200870
   103  C          0.45895830       0.16351600       0.68200870
   104  C          0.04104170       0.66351600       0.31799130
   105  H          0.63601900       0.84344000       0.39431400
   106  H          0.86398100       0.34344000       0.60568600
   107  H          0.36398100       0.15656000       0.60568600
   108  H          0.13601900       0.65656000       0.39431400
   109  C          0.50169160       0.87857400       0.20994120
   110  C         -0.00169160       0.37857400       0.79005880
   111  C          0.49830840       0.12142600       0.79005880
   112  C          0.00169160       0.62142600       0.20994120
   113  H          0.56271800       0.91423000       0.21081400
   114  H          0.93728200       0.41423000       0.78918600
   115  H          0.43728200       0.08577000       0.78918600
   116  H          0.06271800       0.58577000       0.21081400
   117  C          0.36749160       0.89637400       0.74082870
   118  C          0.13250840       0.39637400       0.25917130
   119  C          0.63250840       0.10362600       0.25917130
   120  C          0.86749160       0.60362600       0.74082870
   121  H          0.43021800       0.93494000       0.75058500
   122  H          0.06978200       0.43494000       0.24941500
   123  H          0.56978200       0.06506000       0.24941500
   124  H          0.93021800       0.56506000       0.75058500
   125  C          0.34574170       0.86219400       0.61935870
   126  C          0.15425830       0.36219400       0.38064130
   127  C          0.65425830       0.13780600       0.38064130
   128  C          0.84574170       0.63780600       0.61935870
   129  H          0.39521800       0.87664000       0.54308600
   130  H          0.10478200       0.37664000       0.45691400
   131  H          0.60478200       0.12336000       0.45691400
   132  H          0.89521800       0.62336000       0.54308600
   133  C          0.25286160       0.80944400       0.60468870
   134  C          0.24713840       0.30944400       0.39531130
   135  C          0.74713840       0.19055600       0.39531130
   136  C          0.75286160       0.69055600       0.60468870
   137  H          0.23911900       0.78554000       0.51838400
   138  H          0.26088100       0.28554000       0.48161600
   139  H          0.76088100       0.21446000       0.48161600
   140  H          0.73911900       0.71446000       0.51838400
   141  C          0.18900160       0.78876400       0.71237870
   142  C          0.31099840       0.28876400       0.28762130
   143  C          0.81099840       0.21123600       0.28762130
   144  C          0.68900160       0.71123600       0.71237870
   145  H          0.12881800       0.75124000       0.70298700
   146  H          0.37118200       0.25124000       0.29701300
   147  H          0.87118200       0.24876000       0.29701300
   148  H          0.62881800       0.74876000       0.70298700
   149  C          0.28460150       0.81330500       0.08545120
   150  C          0.21539850       0.31330500       0.91454880
   151  C          0.71539850       0.18669500       0.91454880
   152  C          0.78460150       0.68669500       0.08545120
   153  C          0.36778150       0.86934500       0.09723120
   154  C          0.13221850       0.36934500       0.90276880
   155  C          0.63221850       0.13065500       0.90276880
   156  C          0.86778150       0.63065500       0.09723120
   157  C          0.31100140       0.91229500       0.98002880
   158  C          0.18899860       0.41229500       0.01997120
   159  C          0.68899860       0.08770500       0.01997120
   160  C          0.81100140       0.58770500       0.98002880
   161  C          0.29654150       0.87845500       0.84777880
   162  C          0.20345850       0.37845500       0.15222120
   163  C          0.70345850       0.12154500       0.15222120
   164  C          0.79654150       0.62154500       0.84777880
   165  C          0.21652150       0.82184500       0.83735880
   166  C          0.28347850       0.32184500       0.16264120
   167  C          0.78347850       0.17815500       0.16264120
   168  C          0.71652150       0.67815500       0.83735880
   169  C          0.08417180       0.74247400       0.94628860
   170  C          0.41582820       0.24247400       0.05371140
   171  C          0.91582820       0.25752600       0.05371140
   172  C          0.58417180       0.75752600       0.94628860
   173  H         -0.00820000       0.74313000       0.85658300
   174  H          0.50820000       0.24313000       0.14341700
   175  H          0.00820000       0.25687000       0.14341700
   176  H          0.49180000       0.75687000       0.85658300
   177  H          0.04411900       0.73764000       0.02991600
   178  H          0.45588100       0.23764000       0.97008400
   179  H          0.95588100       0.26236000       0.97008400
   180  H          0.54411900       0.76236000       0.02991600
   181  H          0.15361900       0.70343000       0.94288600
   182  H          0.34638100       0.20343000       0.05711400
   183  H          0.84638100       0.29657000       0.05711400
   184  H          0.65361900       0.79657000       0.94288600
   185  N          0.17478120       0.79931600       0.95744900
   186  N          0.32521880       0.29931600       0.04255100
   187  N          0.82521880       0.20068400       0.04255100
   188  N          0.67478120       0.70068400       0.95744900
