data_FEVMUO02
_symmetry_space_group_name_H-M    'P1'
_symmetry_Int_Tables_number       1
loop_
_symmetry_equiv_pos_site_id
_symmetry_equiv_pos_as_xyz
1 x,y,z
_cell_length_a                   25.577817
_cell_length_b                   6.08384
_cell_length_c                   15.581211
_cell_angle_alpha                90.0
_cell_angle_beta                 98.2464
_cell_angle_gamma                90.0
loop_
_atom_site_label
_atom_site_type_symbol
_atom_site_fract_x
_atom_site_fract_y
_atom_site_fract_z
     1  C          0.39129170       0.72488000       0.62762000
     2  C          0.60870830       0.22488000       0.87238000
     3  C          0.60870830       0.27512000       0.37238000
     4  C          0.39129170       0.77512000       0.12762000
     5  C          0.34077150       0.60716000       0.63492000
     6  C          0.65922850       0.10716000       0.86508000
     7  C          0.65922850       0.39284000       0.36508000
     8  C          0.34077150       0.89284000       0.13492000
     9  C          0.33844160       0.39896000       0.67192000
    10  C          0.66155840       0.89896000       0.82808000
    11  C          0.66155840       0.60104000       0.32808000
    12  C          0.33844160       0.10104000       0.17192000
    13  H          0.36960000       0.32260000       0.69030000
    14  H          0.63040000       0.82260000       0.80970000
    15  H          0.63040000       0.67740000       0.30970000
    16  H          0.36960000       0.17740000       0.19030000
    17  C          0.29093180       0.30597000       0.68162000
    18  C          0.70906820       0.80597000       0.81838000
    19  C          0.70906820       0.69403000       0.31838000
    20  C          0.29093180       0.19403000       0.18162000
    21  H          0.29060000       0.16700000       0.70640000
    22  H          0.70940000       0.66700000       0.79360000
    23  H          0.70940000       0.83300000       0.29360000
    24  H          0.29060000       0.33300000       0.20640000
    25  C          0.24329160       0.41168000       0.65562000
    26  C          0.75670840       0.91168000       0.84438000
    27  C          0.75670840       0.58832000       0.34438000
    28  C          0.24329160       0.08832000       0.15562000
    29  C          0.24532170       0.61668000       0.61822000
    30  C          0.75467830       0.11668000       0.88178000
    31  C          0.75467830       0.38332000       0.38178000
    32  C          0.24532170       0.88332000       0.11822000
    33  H          0.21400000       0.69050000       0.59890000
    34  H          0.78600000       0.19050000       0.90110000
    35  H          0.78600000       0.30950000       0.40110000
    36  H          0.21400000       0.80950000       0.09890000
    37  C          0.29289180       0.71417000       0.60892000
    38  C          0.70710820       0.21417000       0.89108000
    39  C          0.70710820       0.28583000       0.39108000
    40  C          0.29289180       0.78583000       0.10892000
    41  H          0.29300000       0.85400000       0.58480000
    42  H          0.70700000       0.35400000       0.91520000
    43  H          0.70700000       0.14600000       0.41520000
    44  H          0.29300000       0.64600000       0.08480000
    45  C          0.44160160       0.60207000       0.62652000
    46  C          0.55839840       0.10207000       0.87348000
    47  C          0.55839840       0.39793000       0.37348000
    48  C          0.44160160       0.89793000       0.12652000
    49  C          0.44355160       0.39697000       0.58892000
    50  C          0.55644840       0.89697000       0.91108000
    51  C          0.55644840       0.60303000       0.41108000
    52  C          0.44355160       0.10303000       0.08892000
    53  H          0.41240000       0.32760000       0.56540000
    54  H          0.58760000       0.82760000       0.93460000
    55  H          0.58760000       0.67240000       0.43460000
    56  H          0.41240000       0.17240000       0.06540000
    57  C          0.49135180       0.29417000       0.58592000
    58  C          0.50864820       0.79417000       0.91408000
    59  C          0.50864820       0.70583000       0.41408000
    60  C          0.49135180       0.20583000       0.08592000
    61  H          0.49180000       0.15660000       0.55990000
    62  H          0.50820000       0.65660000       0.94010000
    63  H          0.50820000       0.84340000       0.44010000
    64  H          0.49180000       0.34340000       0.05990000
    65  C          0.53861170       0.39168000       0.62072000
    66  C          0.46138830       0.89168000       0.87928000
    67  C          0.46138830       0.60832000       0.37928000
    68  C          0.53861170       0.10832000       0.12072000
    69  C          0.53662170       0.59538000       0.65822000
    70  C          0.46337830       0.09538000       0.84178000
    71  C          0.46337830       0.40462000       0.34178000
    72  C          0.53662170       0.90462000       0.15822000
    73  H          0.56790000       0.66260000       0.68250000
    74  H          0.43210000       0.16260000       0.81750000
    75  H          0.43210000       0.33740000       0.31750000
    76  H          0.56790000       0.83740000       0.18250000
    77  C          0.48912180       0.70297000       0.66072000
    78  C          0.51087820       0.20297000       0.83928000
    79  C          0.51087820       0.29703000       0.33928000
    80  C          0.48912180       0.79703000       0.16072000
    81  H          0.48890000       0.84220000       0.68520000
    82  H          0.51110000       0.34220000       0.81480000
    83  H          0.51110000       0.15780000       0.31480000
    84  H          0.48890000       0.65780000       0.18520000
    85  C          0.19156170       0.30838000       0.66753000
    86  C          0.80843830       0.80838000       0.83247000
    87  C          0.80843830       0.69162000       0.33247000
    88  C          0.19156170       0.19162000       0.16753000
    89  H          0.18670000       0.31810000       0.72730000
    90  H          0.81330000       0.81810000       0.77270000
    91  H          0.81330000       0.68190000       0.27270000
    92  H          0.18670000       0.18190000       0.22730000
    93  H          0.19160000       0.15670000       0.65040000
    94  H          0.80840000       0.65670000       0.84960000
    95  H          0.80840000       0.84330000       0.34960000
    96  H          0.19160000       0.34330000       0.15040000
    97  H          0.16330000       0.38420000       0.63230000
    98  H          0.83670000       0.88420000       0.86770000
    99  H          0.83670000       0.61580000       0.36770000
   100  H          0.16330000       0.11580000       0.13230000
   101  C          0.59073180       0.27528000       0.62033000
   102  C          0.40926820       0.77528000       0.87967000
   103  C          0.40926820       0.72472000       0.37967000
   104  C          0.59073180       0.22472000       0.12033000
   105  H          0.61530000       0.37300000       0.59860000
   106  H          0.38470000       0.87300000       0.90140000
   107  H          0.38470000       0.62700000       0.40140000
   108  H          0.61530000       0.12700000       0.09860000
   109  H          0.58550000       0.14790000       0.58370000
   110  H          0.41450000       0.64790000       0.91630000
   111  H          0.41450000       0.85210000       0.41630000
   112  H          0.58550000       0.35210000       0.08370000
   113  H          0.60460000       0.23090000       0.67820000
   114  H          0.39540000       0.73090000       0.82180000
   115  H          0.39540000       0.76910000       0.32180000
   116  H          0.60460000       0.26910000       0.17820000
   117  O          0.39120130       0.92416000       0.62383000
   118  O          0.60879870       0.42416000       0.87617000
   119  O          0.60879870       0.07584000       0.37617000
   120  O          0.39120130       0.57584000       0.12383000
   121  C          0.12360160       0.83787000       0.89503000
   122  C          0.87639840       0.33787000       0.60497000
   123  C          0.87639840       0.16213000       0.10497000
   124  C          0.12360160       0.66213000       0.39503000
   125  C          0.10043150       0.94407000       0.81312000
   126  C          0.89956850       0.44407000       0.68688000
   127  C          0.89956850       0.05593000       0.18688000
   128  C          0.10043150       0.55593000       0.31312000
   129  C          0.07264160       0.13858000       0.81523000
   130  C          0.92735840       0.63858000       0.68477000
   131  C          0.92735840       0.86142000       0.18477000
   132  C          0.07264160       0.36142000       0.31523000
   133  H          0.06900000       0.20180000       0.86840000
   134  H          0.93100000       0.70180000       0.63160000
   135  H          0.93100000       0.79820000       0.13160000
   136  H          0.06900000       0.29820000       0.36840000
   137  C          0.05025160       0.24018000       0.73953000
   138  C          0.94974840       0.74018000       0.76047000
   139  C          0.94974840       0.75982000       0.26047000
   140  C          0.05025160       0.25982000       0.23953000
   141  H          0.03260000       0.37290000       0.74250000
   142  H          0.96740000       0.87290000       0.75750000
   143  H          0.96740000       0.62710000       0.25750000
   144  H          0.03260000       0.12710000       0.24250000
   145  C          0.05364160       0.14698000       0.65873000
   146  C          0.94635840       0.64698000       0.84127000
   147  C          0.94635840       0.85302000       0.34127000
   148  C          0.05364160       0.35302000       0.15873000
   149  C          0.07944160       0.94928000       0.65603000
   150  C          0.92055840       0.44928000       0.84397000
   151  C          0.92055840       0.05072000       0.34397000
   152  C          0.07944160       0.55072000       0.15603000
   153  H          0.08100000       0.88140000       0.60300000
   154  H          0.91900000       0.38140000       0.89700000
   155  H          0.91900000       0.11860000       0.39700000
   156  H          0.08100000       0.61860000       0.10300000
   157  C          0.10329150       0.84977000       0.73232000
   158  C          0.89670850       0.34977000       0.76768000
   159  C          0.89670850       0.15023000       0.26768000
   160  C          0.10329150       0.65023000       0.23232000
   161  H          0.12140000       0.71810000       0.72930000
   162  H          0.87860000       0.21810000       0.77070000
   163  H          0.87860000       0.28190000       0.27070000
   164  H          0.12140000       0.78190000       0.22930000
   165  C          0.17022150       0.69077000       0.89592000
   166  C          0.82977850       0.19077000       0.60408000
   167  C          0.82977850       0.30923000       0.10408000
   168  C          0.17022150       0.80923000       0.39592000
   169  C          0.17270180       0.49768000       0.94412000
   170  C          0.82729820      -0.00232000       0.55588000
   171  C          0.82729820       0.50232000       0.05588000
   172  C          0.17270180       0.00232000       0.44412000
   173  H          0.14460000       0.45850000       0.97270000
   174  H          0.85540000       0.95850000       0.52730000
   175  H          0.85540000       0.54150000       0.02730000
   176  H          0.14460000       0.04150000       0.47270000
   177  C          0.21712000       0.36158000       0.94982000
   178  C          0.78288000       0.86158000       0.55018000
   179  C          0.78288000       0.63842000       0.05018000
   180  C          0.21712000       0.13842000       0.44982000
   181  H          0.21750000       0.22940000       0.97990000
   182  H          0.78250000       0.72940000       0.52010000
   183  H          0.78250000       0.77060000       0.02010000
   184  H          0.21750000       0.27060000       0.47990000
   185  C          0.26044170       0.42128000       0.91112000
   186  C          0.73955830       0.92128000       0.58888000
   187  C          0.73955830       0.57872000       0.08888000
   188  C          0.26044170       0.07872000       0.41112000
   189  C          0.25778160       0.61338000       0.86362000
   190  C          0.74221840       0.11338000       0.63638000
   191  C          0.74221840       0.38662000       0.13638000
   192  C          0.25778160       0.88662000       0.36362000
   193  H          0.28640000       0.65460000       0.83670000
   194  H          0.71360000       0.15460000       0.66330000
   195  H          0.71360000       0.34540000       0.16330000
   196  H          0.28640000       0.84540000       0.33670000
   197  C          0.21313160       0.74657000       0.85512000
   198  C          0.78686840       0.24657000       0.64488000
   199  C          0.78686840       0.25343000       0.14488000
   200  C          0.21313160       0.75343000       0.35512000
   201  H          0.21200000       0.87380000       0.82190000
   202  H          0.78800000       0.37380000       0.67810000
   203  H          0.78800000       0.12620000       0.17810000
   204  H          0.21200000       0.62620000       0.32190000
   205  C          0.03039190       0.26339000       0.57543000
   206  C          0.96960810       0.76339000       0.92457000
   207  C          0.96960810       0.73661000       0.42457000
   208  C          0.03039190       0.23661000       0.07543000
   209  H          0.03150000       0.16660000       0.52700000
   210  H          0.96850000       0.66660000       0.97300000
   211  H          0.96850000       0.83340000       0.47300000
   212  H          0.03150000       0.33340000       0.02700000
   213  H          0.05060000       0.39320000       0.56800000
   214  H          0.94940000       0.89320000       0.93200000
   215  H          0.94940000       0.60680000       0.43200000
   216  H          0.05060000       0.10680000       0.06800000
   217  H         -0.00560000       0.30340000       0.57860000
   218  H          0.00560000       0.80340000       0.92140000
   219  H          0.00560000       0.69660000       0.42140000
   220  H         -0.00560000       0.19660000       0.07860000
   221  C          0.30988180       0.27908000       0.92243000
   222  C          0.69011820       0.77908000       0.57757000
   223  C          0.69011820       0.72092000       0.07757000
   224  C          0.30988180       0.22092000       0.42243000
   225  H          0.30010000       0.12760000       0.92700000
   226  H          0.69990000       0.62760000       0.57300000
   227  H          0.69990000       0.87240000       0.07300000
   228  H          0.30010000       0.37240000       0.42700000
   229  H          0.33260000       0.32240000       0.97420000
   230  H          0.66740000       0.82240000       0.52580000
   231  H          0.66740000       0.67760000       0.02580000
   232  H          0.33260000       0.17760000       0.47420000
   233  H          0.32820000       0.29740000       0.87320000
   234  H          0.67180000       0.79740000       0.62680000
   235  H          0.67180000       0.70260000       0.12680000
   236  H          0.32820000       0.20260000       0.37320000
   237  O          0.10575130       0.87106000       0.96232000
   238  O          0.89424870       0.37106000       0.53768000
   239  O          0.89424870       0.12894000       0.03768000
   240  O          0.10575130       0.62894000       0.46232000
