data_FEVMUO06
_symmetry_space_group_name_H-M    'P1'
_symmetry_Int_Tables_number       1
loop_
_symmetry_equiv_pos_site_id
_symmetry_equiv_pos_as_xyz
1 x,y,z
_cell_length_a                   14.698611
_cell_length_b                   6.13234
_cell_length_c                   26.273018
_cell_angle_alpha                90.0
_cell_angle_beta                 90.0
_cell_angle_gamma                90.0
loop_
_atom_site_label
_atom_site_type_symbol
_atom_site_fract_x
_atom_site_fract_y
_atom_site_fract_z
     1  O          0.09715160       0.54733000       0.61361700
     2  O          0.40284840       0.45267000       0.11361700
     3  O          0.59715160       0.95267000       0.38638300
     4  O          0.90284840       0.04733000       0.88638300
     5  O          0.90284840       0.45267000       0.38638300
     6  O          0.59715160       0.54733000       0.88638300
     7  O          0.40284840       0.04733000       0.61361700
     8  O          0.09715160       0.95267000       0.11361700
     9  C          0.11777140       0.21953000       0.56951800
    10  C          0.38222860       0.78047000       0.06951800
    11  C          0.61777140       0.28047000       0.43048200
    12  C          0.88222860       0.71953000       0.93048200
    13  C          0.88222860       0.78047000       0.43048200
    14  C          0.61777140       0.21953000       0.93048200
    15  C          0.38222860       0.71953000       0.56951800
    16  C          0.11777140       0.28047000       0.06951800
    17  C          0.08759160       0.30984000       0.52421900
    18  C          0.41240840       0.69016000       0.02421900
    19  C          0.58759160       0.19016000       0.47578100
    20  C          0.91240840       0.80984000       0.97578100
    21  C          0.91240840       0.69016000       0.47578100
    22  C          0.58759160       0.30984000       0.97578100
    23  C          0.41240840       0.80984000       0.52421900
    24  C          0.08759160       0.19016000       0.02421900
    25  H          0.06180000       0.44830000       0.52450000
    26  H          0.43820000       0.55170000       0.02450000
    27  H          0.56180000       0.05170000       0.47550000
    28  H          0.93820000       0.94830000       0.97550000
    29  H          0.93820000       0.55170000       0.47550000
    30  H          0.56180000       0.44830000       0.97550000
    31  H          0.43820000       0.94830000       0.52450000
    32  H          0.06180000       0.05170000       0.02450000
    33  C          0.09486160       0.19974000       0.47886900
    34  C          0.40513840       0.80026000       0.97886900
    35  C          0.59486160       0.30026000       0.52113100
    36  C          0.90513840       0.69974000       0.02113100
    37  C          0.90513840       0.80026000       0.52113100
    38  C          0.59486160       0.19974000       0.02113100
    39  C          0.40513840       0.69974000       0.47886900
    40  C          0.09486160       0.30026000       0.97886900
    41  H          0.07210000       0.26230000       0.44920000
    42  H          0.42790000       0.73770000       0.94920000
    43  H          0.57210000       0.23770000       0.55080000
    44  H          0.92790000       0.76230000       0.05080000
    45  H          0.92790000       0.73770000       0.55080000
    46  H          0.57210000       0.26230000       0.05080000
    47  H          0.42790000       0.76230000       0.44920000
    48  H          0.07210000       0.23770000       0.94920000
    49  C          0.13584160      -0.00414000       0.47679900
    50  C          0.36415840       0.00414000       0.97679900
    51  C          0.63584160       0.50414000       0.52320100
    52  C          0.86415840       0.49586000       0.02320100
    53  C          0.86415840       0.00414000       0.52320100
    54  C          0.63584160      -0.00414000       0.02320100
    55  C          0.36415840       0.49586000       0.47679900
    56  C          0.13584160       0.50414000       0.97679900
    57  C          0.16694150       0.90626000       0.52187800
    58  C          0.33305850       0.09374000       0.02187800
    59  C          0.66694150       0.59374000       0.47812200
    60  C          0.83305850       0.40626000       0.97812200
    61  C          0.83305850       0.09374000       0.47812200
    62  C          0.66694150       0.90626000       0.97812200
    63  C          0.33305850       0.40626000       0.52187800
    64  C          0.16694150       0.59374000       0.02187800
    65  H          0.19440000       0.76970000       0.52130000
    66  H          0.30560000       0.23030000       0.02130000
    67  H          0.69440000       0.73030000       0.47870000
    68  H          0.80560000       0.26970000       0.97870000
    69  H          0.80560000       0.23030000       0.47870000
    70  H          0.69440000       0.76970000       0.97870000
    71  H          0.30560000       0.26970000       0.52130000
    72  H          0.19440000       0.73030000       0.02130000
    73  C          0.15830140       0.01463000       0.56764900
    74  C          0.34169860      -0.01463000       0.06764900
    75  C          0.65830140       0.48537000       0.43235100
    76  C          0.84169860       0.51463000       0.93235100
    77  C          0.84169860      -0.01463000       0.43235100
    78  C          0.65830140       0.01463000       0.93235100
    79  C          0.34169860       0.51463000       0.56764900
    80  C          0.15830140       0.48537000       0.06764900
    81  H          0.17970000       0.95030000       0.59740000
    82  H          0.32030000       0.04970000       0.09740000
    83  H          0.67970000       0.54970000       0.40260000
    84  H          0.82030000       0.45030000       0.90260000
    85  H          0.82030000       0.04970000       0.40260000
    86  H          0.67970000       0.95030000       0.90260000
    87  H          0.32030000       0.45030000       0.59740000
    88  H          0.17970000       0.54970000       0.09740000
    89  C          0.11033160       0.35114000       0.61670900
    90  C          0.38966840       0.64886000       0.11670900
    91  C          0.61033160       0.14886000       0.38329100
    92  C          0.88966840       0.85114000       0.88329100
    93  C          0.88966840       0.64886000       0.38329100
    94  C          0.61033160       0.35114000       0.88329100
    95  C          0.38966840       0.85114000       0.61670900
    96  C          0.11033160       0.14886000       0.11670900
    97  C          0.11780140       0.25153000       0.66832800
    98  C          0.38219860       0.74847000       0.16832800
    99  C          0.61780140       0.24847000       0.33167200
   100  C          0.88219860       0.75153000       0.83167200
   101  C          0.88219860       0.74847000       0.33167200
   102  C          0.61780140       0.25153000       0.83167200
   103  C          0.38219860       0.75153000       0.66832800
   104  C          0.11780140       0.24847000       0.16832800
   105  C          0.08237140       0.04893000       0.68045900
   106  C          0.41762860       0.95107000       0.18045900
   107  C          0.58237140       0.45107000       0.31954100
   108  C          0.91762860       0.54893000       0.81954100
   109  C          0.91762860       0.95107000       0.31954100
   110  C          0.58237140       0.04893000       0.81954100
   111  C          0.41762860       0.54893000       0.68045900
   112  C          0.08237140       0.45107000       0.18045900
   113  H          0.05730000       0.96200000       0.65510000
   114  H          0.44270000       0.03800000       0.15510000
   115  H          0.55730000       0.53800000       0.34490000
   116  H          0.94270000       0.46200000       0.84490000
   117  H          0.94270000       0.03800000       0.34490000
   118  H          0.55730000       0.96200000       0.84490000
   119  H          0.44270000       0.46200000       0.65510000
   120  H          0.05730000       0.53800000       0.15510000
   121  C          0.08422150       0.97546000       0.73020900
   122  C          0.41577850       0.02454000       0.23020900
   123  C          0.58422150       0.52454000       0.26979100
   124  C          0.91577850       0.47546000       0.76979100
   125  C          0.91577850       0.02454000       0.26979100
   126  C          0.58422150       0.97546000       0.76979100
   127  C          0.41577850       0.47546000       0.73020900
   128  C          0.08422150       0.52454000       0.23020900
   129  H          0.05940000       0.83980000       0.73780000
   130  H          0.44060000       0.16020000       0.23780000
   131  H          0.55940000       0.66020000       0.26220000
   132  H          0.94060000       0.33980000       0.76220000
   133  H          0.94060000       0.16020000       0.26220000
   134  H          0.55940000       0.83980000       0.76220000
   135  H          0.44060000       0.33980000       0.73780000
   136  H          0.05940000       0.66020000       0.23780000
   137  C          0.12168150       0.09774000       0.76868900
   138  C          0.37831850       0.90226000       0.26868900
   139  C          0.62168150       0.40226000       0.23131100
   140  C          0.87831850       0.59774000       0.73131100
   141  C          0.87831850       0.90226000       0.23131100
   142  C          0.62168150       0.09774000       0.73131100
   143  C          0.37831850       0.59774000       0.76868900
   144  C          0.12168150       0.40226000       0.26868900
   145  C          0.15855160       0.29784000       0.75606100
   146  C          0.34144840       0.70216000       0.25606100
   147  C          0.65855160       0.20216000       0.24393900
   148  C          0.84144840       0.79784000       0.74393900
   149  C          0.84144840       0.70216000       0.24393900
   150  C          0.65855160       0.29784000       0.74393900
   151  C          0.34144840       0.79784000       0.75606100
   152  C          0.15855160       0.20216000       0.25606100
   153  H          0.18540000       0.38220000       0.78130000
   154  H          0.31460000       0.61780000       0.28130000
   155  H          0.68540000       0.11780000       0.21870000
   156  H          0.81460000       0.88220000       0.71870000
   157  H          0.81460000       0.61780000       0.21870000
   158  H          0.68540000       0.38220000       0.71870000
   159  H          0.31460000       0.88220000       0.78130000
   160  H          0.18540000       0.11780000       0.28130000
   161  C          0.15647160       0.37444000       0.70708900
   162  C          0.34352840       0.62556000       0.20708900
   163  C          0.65647160       0.12556000       0.29291100
   164  C          0.84352840       0.87444000       0.79291100
   165  C          0.84352840       0.62556000       0.29291100
   166  C          0.65647160       0.37444000       0.79291100
   167  C          0.34352840       0.87444000       0.70708900
   168  C          0.15647160       0.12556000       0.20708900
   169  H          0.18120000       0.51030000       0.69970000
   170  H          0.31880000       0.48970000       0.19970000
   171  H          0.68120000      -0.01030000       0.30030000
   172  H          0.81880000       0.01030000       0.80030000
   173  H          0.81880000       0.48970000       0.30030000
   174  H          0.68120000       0.51030000       0.80030000
   175  H          0.31880000       0.01030000       0.69970000
   176  H          0.18120000      -0.01030000       0.19970000
   177  C          0.12172000       0.01665000       0.82259100
   178  C          0.37828000      -0.01665000       0.32259100
   179  C          0.62172000       0.48335000       0.17740900
   180  C          0.87828000       0.51665000       0.67740900
   181  C          0.87828000      -0.01665000       0.17740900
   182  C          0.62172000       0.01665000       0.67740900
   183  C          0.37828000       0.51665000       0.82259100
   184  C          0.12172000       0.48335000       0.32259100
   185  H          0.06680000       0.06240000       0.83930000
   186  H          0.43320000       0.93760000       0.33930000
   187  H          0.56680000       0.43760000       0.16070000
   188  H          0.93320000       0.56240000       0.66070000
   189  H          0.93320000       0.93760000       0.16070000
   190  H          0.56680000       0.06240000       0.66070000
   191  H          0.43320000       0.56240000       0.83930000
   192  H          0.06680000       0.43760000       0.33930000
   193  H          0.17330000       0.07540000       0.84030000
   194  H          0.32670000       0.92460000       0.34030000
   195  H          0.67330000       0.42460000       0.15970000
   196  H          0.82670000       0.57540000       0.65970000
   197  H          0.82670000       0.92460000       0.15970000
   198  H          0.67330000       0.07540000       0.65970000
   199  H          0.32670000       0.57540000       0.84030000
   200  H          0.17330000       0.42460000       0.34030000
   201  H          0.12510000       0.86030000       0.82270000
   202  H          0.37490000       0.13970000       0.32270000
   203  H          0.62510000       0.63970000       0.17730000
   204  H          0.87490000       0.36030000       0.67730000
   205  H          0.87490000       0.13970000       0.17730000
   206  H          0.62510000       0.86030000       0.67730000
   207  H          0.37490000       0.36030000       0.82270000
   208  H          0.12510000       0.63970000       0.32270000
   209  C          0.14482000       0.87485000       0.42762100
   210  C          0.35518000       0.12515000       0.92762100
   211  C          0.64482000       0.62515000       0.57237900
   212  C          0.85518000       0.37485000       0.07237900
   213  C          0.85518000       0.12515000       0.57237900
   214  C          0.64482000       0.87485000       0.07237900
   215  C          0.35518000       0.37485000       0.42762100
   216  C          0.14482000       0.62515000       0.92762100
   217  H          0.20530000       0.81710000       0.42470000
   218  H          0.29470000       0.18290000       0.92470000
   219  H          0.70530000       0.68290000       0.57530000
   220  H          0.79470000       0.31710000       0.07530000
   221  H          0.79470000       0.18290000       0.57530000
   222  H          0.70530000       0.81710000       0.07530000
   223  H          0.29470000       0.31710000       0.42470000
   224  H          0.20530000       0.68290000       0.92470000
   225  H          0.13330000       0.97250000       0.39980000
   226  H          0.36670000       0.02750000       0.89980000
   227  H          0.63330000       0.52750000       0.60020000
   228  H          0.86670000       0.47250000       0.10020000
   229  H          0.86670000       0.02750000       0.60020000
   230  H          0.63330000       0.97250000       0.10020000
   231  H          0.36670000       0.47250000       0.39980000
   232  H          0.13330000       0.52750000       0.89980000
   233  H          0.10170000       0.75750000       0.42680000
   234  H          0.39830000       0.24250000       0.92680000
   235  H          0.60170000       0.74250000       0.57320000
   236  H          0.89830000       0.25750000       0.07320000
   237  H          0.89830000       0.24250000       0.57320000
   238  H          0.60170000       0.75750000       0.07320000
   239  H          0.39830000       0.25750000       0.42680000
   240  H          0.10170000       0.74250000       0.92680000
