data_FEVMUO03
_symmetry_space_group_name_H-M    'P1'
_symmetry_Int_Tables_number       1
loop_
_symmetry_equiv_pos_site_id
_symmetry_equiv_pos_as_xyz
1 x,y,z
_cell_length_a                   9.479614
_cell_length_b                   9.479614
_cell_length_c                   11.1643
_cell_angle_alpha                90.0
_cell_angle_beta                 90.0
_cell_angle_gamma                120.0
loop_
_atom_site_label
_atom_site_type_symbol
_atom_site_fract_x
_atom_site_fract_y
_atom_site_fract_z
     1  C          0.21063000       0.21063000       0.00000000
     2  C          0.78937000       0.00000000       0.66666667
     3  C         -0.00000000       0.78937000       0.33333333
     4  C          0.20642000       0.05782000       0.96154180
     5  C          0.94218000       0.14860000       0.62820847
     6  C          0.85140000       0.79358000       0.29487513
     7  C          0.05782000       0.20642000       0.03845820
     8  C          0.14860000       0.94218000       0.37179153
     9  C          0.79358000       0.85140000       0.70512487
    10  C          0.32173000       0.06693000       0.87942000
    11  C          0.93307000       0.25480000       0.54608667
    12  C          0.74520000       0.67827000       0.21275333
    13  C          0.06693000       0.32173000       0.12058000
    14  C          0.25480000       0.93307000       0.45391333
    15  C          0.67827000       0.74520000       0.78724667
    16  H          0.39702700       0.16902400       0.84510100
    17  H          0.83097600       0.22800300       0.51176767
    18  H          0.77199700       0.60297300       0.17843433
    19  H          0.16902400       0.39702700       0.15489900
    20  H          0.22800300       0.83097600       0.48823233
    21  H          0.60297300       0.77199700       0.82156567
    22  C          0.32753000       0.92893000       0.84722000
    23  C          0.07107000       0.39860000       0.51388667
    24  C          0.60140000       0.67247000       0.18055333
    25  C          0.92893000       0.32753000       0.15278000
    26  C          0.39860000       0.07107000       0.48611333
    27  C          0.67247000       0.60140000       0.81944667
    28  H          0.40600700       0.93752200       0.79028900
    29  H          0.06247800       0.46848500       0.45695567
    30  H          0.53151500       0.59399300       0.12362233
    31  H          0.93752200       0.40600700       0.20971100
    32  H          0.46848500       0.06247800       0.54304433
    33  H          0.59399300       0.53151500       0.87637767
    34  C          0.22053000       0.77813000       0.89675190
    35  C          0.22187000       0.44240000       0.56341857
    36  C          0.55760000       0.77947000       0.23008523
    37  C          0.77813000       0.22053000       0.10324810
    38  C          0.44240000       0.22187000       0.43658143
    39  C          0.77947000       0.55760000       0.76991477
    40  C          0.10663000       0.76923000       0.97962180
    41  C          0.23077000       0.33740000       0.64628847
    42  C          0.66260000       0.89337000       0.31295513
    43  C          0.76923000       0.10663000       0.02037820
    44  C          0.33740000       0.23077000       0.35371153
    45  C          0.89337000       0.66260000       0.68704487
    46  H          0.03393000       0.66748200       0.01575100
    47  H          0.33251800       0.36644800       0.68241767
    48  H          0.63355200       0.96607000       0.34908433
    49  H          0.66748200       0.03393000       0.98424900
    50  H          0.36644800       0.33251800       0.31758233
    51  H          0.96607000       0.63355200       0.65091567
    52  C          0.09743000       0.90623000       0.01046170
    53  C          0.09377000       0.19120000       0.67712837
    54  C          0.80880000       0.90257000       0.34379503
    55  C          0.90623000       0.09743000      -0.01046170
    56  C          0.19120000       0.09377000       0.32287163
    57  C          0.90257000       0.80880000       0.65620497
    58  H          0.01630600       0.89673500       0.06518900
    59  H          0.10326500       0.11957100       0.73185567
    60  H          0.88042900      -0.01630600       0.39852233
    61  H          0.89673500       0.01630600       0.93481100
    62  H          0.11957100       0.10326500       0.26814433
    63  H         -0.01630600       0.88042900       0.60147767
    64  C          0.22813000       0.62734000       0.86283000
    65  C          0.37266000       0.60079000       0.52949667
    66  C          0.39921000       0.77187000       0.19616333
    67  C          0.62734000       0.22813000       0.13717000
    68  C          0.60079000       0.37266000       0.47050333
    69  C          0.77187000       0.39921000       0.80383667
    70  H          0.31753100       0.62645600       0.90630300
    71  H          0.37354400       0.69107500       0.57296967
    72  H          0.30892500       0.68246900       0.23963633
    73  H          0.62645600       0.31753100       0.09369700
    74  H          0.69107500       0.37354400       0.42703033
    75  H          0.68246900       0.30892500       0.76036367
    76  H          0.24683400       0.62800500       0.77643600
    77  H          0.37199500       0.61882900       0.44310267
    78  H          0.38117100       0.75316600       0.10976933
    79  H          0.62800500       0.24683400       0.22356400
    80  H          0.61882900       0.37199500       0.55689733
    81  H          0.75316600       0.38117100       0.89023067
    82  H          0.12501300       0.52990400       0.88380100
    83  H          0.47009600       0.59510900       0.55046767
    84  H          0.40489100       0.87498700       0.21713433
    85  H          0.52990400       0.12501300       0.11619900
    86  H          0.59510900       0.47009600       0.44953233
    87  H          0.87498700       0.40489100       0.78286567
    88  O          0.33952000       0.33952000       0.00000000
    89  O          0.66048000       0.00000000       0.66666667
    90  O         -0.00000000       0.66048000       0.33333333
