data_FEVMUO
_symmetry_space_group_name_H-M    'P1'
_symmetry_Int_Tables_number       1
loop_
_symmetry_equiv_pos_site_id
_symmetry_equiv_pos_as_xyz
1 x,y,z
_cell_length_a                   12.1643
_cell_length_b                   7.9502
_cell_length_c                   12.2633
_cell_angle_alpha                90.0
_cell_angle_beta                 90.0
_cell_angle_gamma                90.0
loop_
_atom_site_label
_atom_site_type_symbol
_atom_site_fract_x
_atom_site_fract_y
_atom_site_fract_z
     1  C          0.03623000       0.59807000       0.09204000
     2  C          0.53623000       0.90193000       0.90796000
     3  C          0.96377000       0.09807000       0.40796000
     4  C          0.46377000       0.40193000       0.59204000
     5  C          0.91603000       0.55965000       0.07183000
     6  C          0.41603000       0.94035000       0.92817000
     7  C          0.08397000       0.05965000       0.42817000
     8  C          0.58397000       0.44035000       0.57183000
     9  C          0.85463000       0.47905000       0.15213000
    10  C          0.35463000       0.02095000       0.84787000
    11  C          0.14537000       0.97905000       0.34787000
    12  C          0.64537000       0.52095000       0.65213000
    13  C          0.74393000       0.44315000       0.13463000
    14  C          0.24393000       0.05685000       0.86537000
    15  C          0.25607000       0.94315000       0.36537000
    16  C          0.75607000       0.55685000       0.63463000
    17  C          0.69383000       0.48765000       0.03703000
    18  C          0.19383000       0.01235000       0.96297000
    19  C          0.30617000      -0.01235000       0.46297000
    20  C          0.80617000       0.51235000       0.53703000
    21  C          0.75623000       0.56625000       0.95647000
    22  C          0.25623000       0.93375000       0.04353000
    23  C          0.24377000       0.06625000       0.54353000
    24  C          0.74377000       0.43375000       0.45647000
    25  C          0.86563000       0.60265000       0.97437000
    26  C          0.36563000       0.89735000       0.02563000
    27  C          0.13437000       0.10265000       0.52563000
    28  C          0.63437000       0.39735000       0.47437000
    29  C          0.57683000       0.44575000       0.01123000
    30  C          0.07683000       0.05425000      -0.01123000
    31  C          0.42317000       0.94575000       0.48877000
    32  C          0.92317000       0.55425000       0.51123000
    33  C          0.49133000       0.44905000       0.09853000
    34  C         -0.00867000       0.05095000       0.90147000
    35  C          0.50867000       0.94905000       0.40147000
    36  C          0.00867000       0.55095000       0.59853000
    37  C          0.50213000       0.54455000       0.19293000
    38  C          0.00213000       0.95545000       0.80707000
    39  C          0.49787000       0.04455000       0.30707000
    40  C         -0.00213000       0.45545000       0.69293000
    41  C          0.41833000       0.54515000       0.26983000
    42  C          0.91833000       0.95485000       0.73017000
    43  C          0.58167000       0.04515000       0.23017000
    44  C          0.08167000       0.45485000       0.76983000
    45  C          0.32273000       0.45375000       0.25443000
    46  C          0.82273000       0.04625000       0.74557000
    47  C          0.67727000       0.95375000       0.24557000
    48  C          0.17727000       0.54625000       0.75443000
    49  C          0.31253000       0.35745000       0.15933000
    50  C          0.81253000       0.14255000       0.84067000
    51  C          0.68747000       0.85745000       0.34067000
    52  C          0.18747000       0.64255000       0.65933000
    53  C          0.39523000       0.35625000       0.08243000
    54  C          0.89523000       0.14375000       0.91757000
    55  C          0.60477000       0.85625000       0.41757000
    56  C          0.10477000       0.64375000       0.58243000
    57  C          0.23233000       0.45636000       0.33883000
    58  C          0.73233000       0.04364000       0.66117000
    59  C          0.76767000       0.95636000       0.16117000
    60  C          0.26767000       0.54364000       0.83883000
    61  O          0.55112000       0.40865000       0.91788000
    62  O          0.05112000       0.09135000       0.08212000
    63  O          0.44888000       0.90865000       0.58212000
    64  O          0.94888000       0.59135000       0.41788000
    65  H          0.07040000       0.65660000       0.02630000
    66  H          0.57040000       0.84340000       0.97370000
    67  H          0.92960000       0.15660000       0.47370000
    68  H          0.42960000       0.34340000       0.52630000
    69  H          0.04340000       0.69160000       0.15840000
    70  H          0.54340000       0.80840000       0.84160000
    71  H          0.95660000       0.19160000       0.34160000
    72  H          0.45660000       0.30840000       0.65840000
    73  H          0.07540000       0.48260000       0.10640000
    74  H          0.57540000       0.01740000       0.89360000
    75  H          0.92460000      -0.01740000       0.39360000
    76  H          0.42460000       0.51740000       0.60640000
    77  H          0.89030000       0.44050000       0.22730000
    78  H          0.39030000       0.05950000       0.77270000
    79  H          0.10970000       0.94050000       0.27270000
    80  H          0.60970000       0.55950000       0.72730000
    81  H          0.70230000       0.37950000       0.19830000
    82  H          0.20230000       0.12050000       0.80170000
    83  H          0.29770000       0.87950000       0.30170000
    84  H          0.79770000       0.62050000       0.69830000
    85  H          0.72030000       0.59250000       0.88070000
    86  H          0.22030000       0.90750000       0.11930000
    87  H          0.27970000       0.09250000       0.61930000
    88  H          0.77970000       0.40750000       0.38070000
    89  H          0.91130000       0.67150000       0.91070000
    90  H          0.41130000       0.82850000       0.08930000
    91  H          0.08870000       0.17150000       0.58930000
    92  H          0.58870000       0.32850000       0.41070000
    93  H          0.57230000       0.61450000       0.20930000
    94  H          0.07230000       0.88550000       0.79070000
    95  H          0.42770000       0.11450000       0.29070000
    96  H          0.92770000       0.38550000       0.70930000
    97  H          0.42730000       0.61650000       0.34130000
    98  H          0.92730000       0.88350000       0.65870000
    99  H          0.57270000       0.11650000       0.15870000
   100  H          0.07270000       0.38350000       0.84130000
   101  H          0.25330000       0.40060000       0.40930000
   102  H          0.75330000       0.09940000       0.59070000
   103  H          0.74670000       0.90060000       0.09070000
   104  H          0.24670000       0.59940000       0.90930000
   105  H          0.16430000       0.39460000       0.31830000
   106  H          0.66430000       0.10540000       0.68170000
   107  H          0.83570000       0.89460000       0.18170000
   108  H          0.33570000       0.60540000       0.81830000
   109  H          0.20830000       0.57160000       0.35630000
   110  H          0.70830000       0.92840000       0.64370000
   111  H          0.79170000       0.07160000       0.14370000
   112  H          0.29170000       0.42840000       0.85630000
   113  H          0.24630000       0.28350000       0.14930000
   114  H          0.74630000       0.21650000       0.85070000
   115  H          0.75370000       0.78350000       0.35070000
   116  H          0.25370000       0.71650000       0.64930000
   117  H          0.38830000       0.27550000       0.01330000
   118  H          0.88830000       0.22450000       0.98670000
   119  H          0.61170000       0.77550000       0.48670000
   120  H          0.11170000       0.72450000       0.51330000
