data_FIGJUC02
_symmetry_space_group_name_H-M    'P1'
_symmetry_Int_Tables_number       1
loop_
_symmetry_equiv_pos_site_id
_symmetry_equiv_pos_as_xyz
1 x,y,z
_cell_length_a                   7.28954
_cell_length_b                   12.74916
_cell_length_c                   19.370811
_cell_angle_alpha                75.3312
_cell_angle_beta                 88.7462
_cell_angle_gamma                76.7392
loop_
_atom_site_label
_atom_site_type_symbol
_atom_site_fract_x
_atom_site_fract_y
_atom_site_fract_z
     1  F          0.33973000       0.63360140       0.78540900
     2  F          0.66027000       0.36639860       0.21459100
     3  F          0.03583000       0.62853160       0.80751900
     4  F          0.96417000       0.37146840       0.19248100
     5  O          0.27053000       0.48214150       0.86683900
     6  O          0.72947000       0.51785850       0.13316100
     7  N          0.20573000       0.51163150       0.73748100
     8  N          0.79427000       0.48836850       0.26251900
     9  C          0.11914000       0.53702000       0.61570130
    10  C          0.88086000       0.46298000       0.38429870
    11  H          0.06140000       0.58330000       0.57290000
    12  H          0.93860000       0.41670000       0.42710000
    13  C          0.28863000       0.40324180       0.74377120
    14  C          0.71137000       0.59675820       0.25622880
    15  C          0.20314000       0.42682000       0.62077130
    16  C          0.79686000       0.57318000       0.37922870
    17  H          0.20270000       0.39780000       0.58130000
    18  H          0.79730000       0.60220000       0.41870000
    19  C          0.12204000       0.57682000       0.67431130
    20  C          0.87796000       0.42318000       0.32568870
    21  H          0.06490000       0.65110000       0.67110000
    22  H          0.93510000       0.34890000       0.32890000
    23  C          0.28703000       0.36042000       0.68398130
    24  C          0.71297000       0.63958000       0.31601870
    25  H          0.34370000       0.28600000       0.68740000
    26  H          0.65630000       0.71400000       0.31260000
    27  C          0.37113000       0.33672000       0.81158130
    28  C          0.62887000       0.66328000       0.18841870
    29  H          0.43620000       0.26340000       0.81560000
    30  H          0.56380000       0.73660000       0.18440000
    31  C          0.35713000       0.37712000       0.86970130
    32  C          0.64287000       0.62288000       0.13029870
    33  C          0.43213000       0.31112000       0.94199130
    34  C          0.56787000       0.68888000       0.05800870
    35  B          0.21255000       0.56542000       0.80172160
    36  B          0.78745000       0.43458000       0.19827840
    37  C          0.49704000       0.19612000       0.95802150
    38  C          0.50296000       0.80388000       0.04197850
    39  H          0.49490000       0.15830000       0.92290000
    40  H          0.50510000       0.84170000       0.07710000
    41  C          0.50355000       0.30524000       0.06422160
    42  C          0.49645000       0.69476000       0.93577840
    43  H          0.50510000       0.34210000       0.09980000
    44  H          0.49490000       0.65790000       0.90020000
    45  C          0.56524000       0.13763000       0.02675180
    46  C          0.43476000       0.86237000       0.97324820
    47  H          0.60940000       0.06070000       0.03740000
    48  H          0.39060000       0.93930000       0.96260000
    49  C          0.43554000       0.36493000      -0.00396860
    50  C          0.56446000       0.63507000       0.00396860
    51  H          0.39150000       0.44180000       0.98620000
    52  H          0.60850000       0.55820000       0.01380000
    53  C          0.56784000       0.19284000       0.07919170
    54  C          0.43216000       0.80716000       0.92080830
    55  H          0.61370000       0.15290000       0.12500000
    56  H          0.38630000       0.84710000       0.87500000
    57  O          0.10493000       0.76674150       0.20282100
    58  O          0.89507000       0.23325850       0.79717900
    59  F          0.82923000       0.88704180       0.15136100
    60  F          0.17077000       0.11295820       0.84863900
    61  F          0.10453000       0.92744150       0.11772900
    62  F          0.89547000       0.07255850       0.88227100
    63  N          0.01713000       0.78288170       0.07749100
    64  N          0.98287000       0.21711830       0.92250900
    65  C          0.15703000       0.65666190       0.21279120
    66  C          0.84297000       0.34333810       0.78720880
    67  C          0.23193000       0.59522000       0.28603120
    68  C          0.76807000       0.40478000       0.71396880
    69  C          0.21464000       0.65042000       0.34053130
    70  C          0.78536000       0.34958000       0.65946870
    71  H          0.16080000       0.72650000       0.33010000
    72  H          0.83920000       0.27350000       0.66990000
    73  C          0.27674000       0.59312000       0.40999130
    74  C          0.72326000       0.40688000       0.59000870
    75  H          0.26280000       0.63040000       0.44600000
    76  H          0.73720000       0.36960000       0.55400000
    77  C          0.31684000       0.48202000       0.30323140
    78  C          0.68316000       0.51798000       0.69676860
    79  H          0.33290000       0.44390000       0.26760000
    80  H          0.66710000       0.55610000       0.73240000
    81  C          0.14254000       0.60882000       0.15975130
    82  C          0.85746000       0.39118000       0.84024870
    83  H          0.17650000       0.53150000       0.16910000
    84  H          0.82350000       0.46850000       0.83090000
    85  C          0.37744000       0.42542000       0.37253150
    86  C          0.62256000       0.57458000       0.62746850
    87  H          0.43100000       0.34920000       0.38340000
    88  H          0.56900000       0.65080000       0.61660000
    89  C          0.35914000       0.48072000       0.42538150
    90  C          0.64086000       0.51928000       0.57461850
    91  H          0.40240000       0.44220000       0.47170000
    92  H          0.59760000       0.55780000       0.52830000
    93  C          0.07704000       0.67182000       0.08969130
    94  C          0.92296000       0.32818000       0.91030870
    95  C          0.07214000       0.62253000       0.03287150
    96  C          0.92786000       0.37747000       0.96712850
    97  H          0.10980000       0.54550000       0.04090000
    98  H          0.89020000       0.45450000       0.95910000
    99  C          0.01284000       0.68633000       0.96638850
   100  C         -0.01284000       0.31367000       0.03361150
   101  H          0.01290000       0.65340000       0.92870000
   102  H         -0.01290000       0.34660000       0.07130000
   103  C          0.95264000       0.80023000       0.95494860
   104  C          0.04736000       0.19977000       0.04505140
   105  H          0.91050000       0.84500000       0.90970000
   106  H          0.08950000       0.15500000       0.09030000
   107  B          0.01625000       0.84242000       0.13999150
   108  B          0.98375000       0.15758000       0.86000850
   109  C          0.95584000       0.84582000       0.01124140
   110  C          0.04416000       0.15418000       0.98875860
   111  H          0.91470000       0.92260000       0.00390000
   112  H          0.08530000       0.07740000      -0.00390000
   113  N          0.79043000       0.93145160       0.41972100
   114  N          0.20957000       0.06854840       0.58027900
   115  F          0.67483000       0.76780140       0.46767900
   116  F          0.32517000       0.23219860       0.53232100
   117  O          0.75213000       0.85429140       0.54918100
   118  O          0.24787000       0.14570860       0.45081900
   119  F          0.98083000       0.76171160       0.48782110
   120  F          0.01917000       0.23828840       0.51217890
   121  C          0.73643000       0.95539190       0.55905130
   122  C          0.26357000       0.04460810       0.44094870
   123  C          0.71153000       0.96072000       0.63400120
   124  C          0.28847000       0.03928000       0.36599880
   125  C          0.74414000       0.04218190       0.50396130
   126  C          0.25586000       0.95781810       0.49603870
   127  H          0.73370000       0.11160000       0.51290000
   128  H          0.26630000       0.88840000       0.48710000
   129  C          0.66924000       0.06302000       0.72436140
   130  C          0.33076000       0.93698000       0.27563860
   131  H          0.65370000       0.13030000       0.73680000
   132  H          0.34630000       0.86970000       0.26320000
   133  C          0.81274000       0.91922000       0.35288140
   134  C          0.18726000       0.08078000       0.64711860
   135  H          0.82710000       0.84830000       0.34580000
   136  H          0.17290000       0.15170000       0.65420000
   137  C          0.76773000       0.03319180       0.43206130
   138  C          0.23227000       0.96680820       0.56793870
   139  C          0.68684000       0.06062000       0.65361140
   140  C          0.31316000       0.93938000       0.34638860
   141  H          0.68200000       0.12650000       0.61870000
   142  H          0.31800000       0.87350000       0.38130000
   143  C          0.81514000       0.00562000       0.29523140
   144  C          0.18486000      -0.00562000       0.70476860
   145  H          0.83140000      -0.00550000       0.24970000
   146  H          0.16860000       0.00550000       0.75030000
   147  C          0.69904000       0.86703000       0.75817150
   148  C          0.30096000       0.13297000       0.24182850
   149  H          0.70290000       0.80160000       0.79350000
   150  H          0.29710000       0.19840000       0.20650000
   151  C          0.79294000       0.11022000       0.30628140
   152  C          0.20706000       0.88978000       0.69371860
   153  H          0.79360000       0.17110000       0.26800000
   154  H          0.20640000       0.82890000       0.73200000
   155  C          0.76984000       0.12402000       0.37415140
   156  C          0.23016000       0.87598000       0.62584860
   157  H          0.75530000       0.19460000       0.38160000
   158  H          0.24470000       0.80540000       0.61840000
   159  C          0.71774000       0.86362000       0.68727140
   160  C          0.28226000       0.13638000       0.31272860
   161  H          0.73460000       0.79590000       0.67540000
   162  H          0.26540000       0.20410000       0.32460000
   163  C          0.67474000       0.96643000       0.77656150
   164  C          0.32526000       0.03357000       0.22343850
   165  H          0.66190000       0.96830000       0.82410000
   166  H          0.33810000       0.03170000       0.17590000
   167  B          0.79985000       0.82532000       0.48332170
   168  B          0.20015000       0.17468000       0.51667830
