data_FIGJUC
_symmetry_space_group_name_H-M    'P1'
_symmetry_Int_Tables_number       1
loop_
_symmetry_equiv_pos_site_id
_symmetry_equiv_pos_as_xyz
1 x,y,z
_cell_length_a                   7.25942
_cell_length_b                   12.62623
_cell_length_c                   12.61094
_cell_angle_alpha                90.0
_cell_angle_beta                 101.2261
_cell_angle_gamma                90.0
loop_
_atom_site_label
_atom_site_type_symbol
_atom_site_fract_x
_atom_site_fract_y
_atom_site_fract_z
     1  N          0.22460150       0.12290900       0.39919900
     2  N          0.27539850       0.62290900       0.10080100
     3  N          0.77539850       0.87709100       0.60080100
     4  N          0.72460150       0.37709100       0.89919900
     5  O          0.13780160       0.93261200       0.37719800
     6  O          0.36219840       0.43261200       0.12280200
     7  O          0.86219840       0.06738800       0.62280200
     8  O          0.63780160       0.56738800       0.87719800
     9  B          0.16763000       0.02693140       0.31936130
    10  B          0.33237000       0.52693140       0.18063870
    11  B          0.83237000       0.97306860       0.68063870
    12  B          0.66763000       0.47306860       0.81936130
    13  F          0.00625150       0.05297800       0.24833800
    14  F          0.49374850       0.55297800       0.25166200
    15  F         -0.00625150       0.94702200       0.75166200
    16  F          0.50625150       0.44702200       0.74833800
    17  F          0.31496160       0.01146900       0.26547800
    18  F          0.18503840       0.51146900       0.23452200
    19  F          0.68503840       0.98853100       0.73452200
    20  F          0.81496160       0.48853100       0.76547800
    21  C          0.21364170       0.91734890       0.48156100
    22  C          0.28635830       0.41734890       0.01843900
    23  C          0.78635830       0.08265110       0.51843900
    24  C          0.71364170       0.58265110       0.98156100
    25  C          0.28750190      -0.00136110       0.54442100
    26  C          0.21249810       0.49863890       0.95557900
    27  C          0.71249810       0.00136110       0.45557900
    28  C          0.78750190       0.50136110       0.04442100
    29  H          0.34030000       0.98490000       0.61730000
    30  H          0.15970000       0.48490000       0.88270000
    31  H          0.65970000       0.01510000       0.38270000
    32  H          0.84030000       0.51510000       0.11730000
    33  C          0.28957170       0.10466110       0.50592100
    34  C          0.21042830       0.60466110      -0.00592100
    35  C          0.71042830       0.89533890       0.49407900
    36  C          0.78957170       0.39533890       0.00592100
    37  C          0.35592000       0.19051120       0.57239110
    38  C          0.14408000       0.69051120       0.92760890
    39  C          0.64408000       0.80948880       0.42760890
    40  C          0.85592000       0.30948880       0.07239110
    41  H          0.40390000       0.17900000       0.64630000
    42  H          0.09610000       0.67900000       0.85370000
    43  H          0.59610000       0.82100000       0.35370000
    44  H          0.90390000       0.32100000       0.14630000
    45  C          0.35202000       0.29070120       0.53169140
    46  C          0.14798000       0.79070120       0.96830860
    47  C          0.64798000       0.70929880       0.46830860
    48  C          0.85202000       0.20929880       0.03169140
    49  H          0.39710000       0.34790000       0.57710000
    50  H          0.10290000       0.84790000       0.92290000
    51  H          0.60290000       0.65210000       0.42290000
    52  H          0.89710000       0.15210000       0.07710000
    53  C          0.28102000       0.30762120       0.42296140
    54  C          0.21898000       0.80762120       0.07703860
    55  C          0.71898000       0.69237880       0.57703860
    56  C          0.78102000       0.19237880       0.92296140
    57  H          0.27510000       0.37620000       0.39350000
    58  H          0.22490000       0.87620000       0.10650000
    59  H          0.72490000       0.62380000       0.60650000
    60  H          0.77510000       0.12380000       0.89350000
    61  C          0.22002000       0.22238120       0.35978120
    62  C          0.27998000       0.72238120       0.14021880
    63  C          0.77998000       0.77761880       0.64021880
    64  C          0.72002000       0.27761880       0.85978120
    65  H          0.17280000       0.23330000       0.28570000
    66  H          0.32720000       0.73330000       0.21430000
    67  H          0.82720000       0.76670000       0.71430000
    68  H          0.67280000       0.26670000       0.78570000
    69  C          0.20910170       0.80657890       0.51748110
    70  C          0.29089830       0.30657890       0.98251890
    71  C          0.79089830       0.19342110       0.48251890
    72  C          0.70910170       0.69342110       0.01748110
    73  C          0.14802000       0.72697880       0.44264120
    74  C          0.35198000       0.22697880       0.05735880
    75  C          0.85198000       0.27302120       0.55735880
    76  C          0.64802000       0.77302120       0.94264120
    77  H          0.10280000       0.74480000       0.36980000
    78  H          0.39720000       0.24480000       0.13020000
    79  H          0.89720000       0.25520000       0.63020000
    80  H          0.60280000       0.75520000       0.86980000
    81  C          0.15312000       0.62157880       0.47422150
    82  C          0.34688000       0.12157880       0.02577850
    83  C          0.84688000       0.37842120       0.52577850
    84  C          0.65312000       0.87842120       0.97422150
    85  H          0.11080000       0.56860000       0.42290000
    86  H          0.38920000       0.06860000       0.07710000
    87  H          0.88920000       0.43140000       0.57710000
    88  H          0.61080000       0.93140000       0.92290000
    89  C          0.21962000       0.59439880       0.58011150
    90  C          0.28038000       0.09439880       0.91988850
    91  C          0.78038000       0.40560120       0.41988850
    92  C          0.71962000       0.90560120       0.08011150
    93  H          0.22400000       0.52290000       0.60120000
    94  H          0.27600000       0.02290000       0.89880000
    95  H          0.77600000       0.47710000       0.39880000
    96  H          0.72400000       0.97710000       0.10120000
    97  C          0.28012000       0.67225870       0.65561130
    98  C          0.21988000       0.17225870       0.84438870
    99  C          0.71988000       0.32774130       0.34438870
   100  C          0.78012000       0.82774130       0.15561130
   101  H          0.32610000       0.65370000       0.72810000
   102  H          0.17390000       0.15370000       0.77190000
   103  H          0.67390000       0.34630000       0.27190000
   104  H          0.82610000       0.84630000       0.22810000
   105  C          0.27352000       0.77719880       0.62507120
   106  C          0.22648000       0.27719880       0.87492880
   107  C          0.72648000       0.22280120       0.37492880
   108  C          0.77352000       0.72280120       0.12507120
   109  H          0.31280000       0.82970000       0.67740000
   110  H          0.18720000       0.32970000       0.82260000
   111  H          0.68720000       0.17030000       0.32260000
   112  H          0.81280000       0.67030000       0.17740000
