data_FIGJUC03
_symmetry_space_group_name_H-M    'P1'
_symmetry_Int_Tables_number       1
loop_
_symmetry_equiv_pos_site_id
_symmetry_equiv_pos_as_xyz
1 x,y,z
_cell_length_a                   13.696015
_cell_length_b                   6.50358
_cell_length_c                   13.045615
_cell_angle_alpha                90.0
_cell_angle_beta                 98.33912
_cell_angle_gamma                90.0
loop_
_atom_site_label
_atom_site_type_symbol
_atom_site_fract_x
_atom_site_fract_y
_atom_site_fract_z
     1  N          0.85771130       0.07203000       0.37487130
     2  N          0.14228870       0.57203000       0.12512870
     3  N          0.14228870       0.92797000       0.62512870
     4  N          0.85771130       0.42797000       0.87487130
     5  O          0.76923110       0.36342000       0.28070110
     6  O          0.23076890       0.86342000       0.21929890
     7  O          0.23076890       0.63658000       0.71929890
     8  O          0.76923110       0.13658000       0.78070110
     9  F          0.94027100       0.34622000       0.30060110
    10  F          0.05972900       0.84622000       0.19939890
    11  F          0.05972900       0.65378000       0.69939890
    12  F          0.94027100       0.15378000       0.80060110
    13  C          0.73055160       0.40893000       0.36706160
    14  C          0.26944840       0.90893000       0.13293840
    15  C          0.26944840       0.59107000       0.63293840
    16  C          0.73055160       0.09107000       0.86706160
    17  C          0.80880160       0.10983000       0.45616160
    18  C          0.19119840       0.60983000       0.04383840
    19  C          0.19119840       0.89017000       0.54383840
    20  C          0.80880160       0.39017000       0.95616160
    21  F          0.84873130       0.12592000       0.19177100
    22  F          0.15126870       0.62592000       0.30822900
    23  F          0.15126870       0.87408000       0.80822900
    24  F          0.84873130       0.37408000       0.69177100
    25  C          0.66677160       0.59163000       0.35680180
    26  C          0.33322840       0.09163000       0.14319820
    27  C          0.33322840       0.40837000       0.64319820
    28  C          0.66677160       0.90837000       0.85680180
    29  C          0.92224180       0.76116000       0.45133180
    30  C          0.07775820       0.26116000       0.04866820
    31  C          0.07775820       0.23884000       0.54866820
    32  C          0.92224180       0.73884000       0.95133180
    33  H          0.96090000       0.64430000       0.44870000
    34  H          0.03910000       0.14430000       0.05130000
    35  H          0.03910000       0.35570000       0.55130000
    36  H          0.96090000       0.85570000       0.94870000
    37  C          0.81689180       0.96927000       0.53740170
    38  C          0.18310820       0.46927000       0.96259830
    39  C          0.18310820       0.03073000       0.46259830
    40  C          0.81689180       0.53073000       0.03740170
    41  H          0.78400000      -0.00610000       0.59370000
    42  H          0.21600000       0.49390000       0.90630000
    43  H          0.21600000       0.00610000       0.40630000
    44  H          0.78400000       0.50610000       0.09370000
    45  C          0.74997170       0.29243000       0.45205170
    46  C          0.25002830       0.79243000       0.04794830
    47  C          0.25002830       0.70757000       0.54794830
    48  C          0.74997170       0.20757000       0.95205170
    49  H          0.72410000       0.33180000       0.51120000
    50  H          0.27590000       0.83180000       0.98880000
    51  H          0.27590000       0.66820000       0.48880000
    52  H          0.72410000       0.16820000       0.01120000
    53  C          0.91351170       0.90047000       0.37332180
    54  C          0.08648830       0.40047000       0.12667820
    55  C          0.08648830       0.09953000       0.62667820
    56  C          0.91351170       0.59953000       0.87332180
    57  H          0.94680000       0.87770000       0.31710000
    58  H          0.05320000       0.37770000       0.18290000
    59  H          0.05320000       0.12230000       0.68290000
    60  H          0.94680000       0.62230000       0.81710000
    61  C          0.87256180       0.79576000       0.53527180
    62  C          0.12743820       0.29576000       0.96472820
    63  C          0.12743820       0.20424000       0.46472820
    64  C          0.87256180       0.70424000       0.03527180
    65  H          0.87720000       0.70180000       0.58950000
    66  H          0.12280000       0.20180000       0.91050000
    67  H          0.12280000       0.29820000       0.41050000
    68  H          0.87720000       0.79820000       0.08950000
    69  C          0.67501180       0.73784000       0.28064180
    70  C          0.32498820       0.23784000       0.21935820
    71  C          0.32498820       0.26216000       0.71935820
    72  C          0.67501180       0.76216000       0.78064180
    73  H          0.72050000       0.71780000       0.23510000
    74  H          0.27950000       0.21780000       0.26490000
    75  H          0.27950000       0.28220000       0.76490000
    76  H          0.72050000       0.78220000       0.73510000
    77  B          0.85432000       0.23134000       0.28345190
    78  B          0.14568000       0.73134000       0.21654810
    79  B          0.14568000       0.76866000       0.71654810
    80  B          0.85432000       0.26866000       0.78345190
    81  C          0.59692180       0.62524000       0.42272000
    82  C          0.40307820       0.12524000       0.07728000
    83  C          0.40307820       0.37476000       0.57728000
    84  C          0.59692180       0.87476000       0.92272000
    85  H          0.58990000       0.53030000       0.47450000
    86  H          0.41010000       0.03030000       0.02550000
    87  H          0.41010000       0.46970000       0.52550000
    88  H          0.58990000       0.96970000       0.97450000
    89  C          0.54832000       0.94124000       0.33673000
    90  C          0.45168000       0.44124000       0.16327000
    91  C          0.45168000       0.05876000       0.66327000
    92  C          0.54832000       0.55876000       0.83673000
    93  H          0.50880000       0.05800000       0.33010000
    94  H          0.49120000       0.55800000       0.16990000
    95  H          0.49120000       0.94200000       0.66990000
    96  H          0.50880000       0.44200000       0.83010000
    97  C          0.53802000       0.79844000       0.41173000
    98  C          0.46198000       0.29844000       0.08827000
    99  C          0.46198000       0.20156000       0.58827000
   100  C          0.53802000       0.70156000       0.91173000
   101  H          0.49100000       0.81830000       0.45540000
   102  H          0.50900000       0.31830000       0.04460000
   103  H          0.50900000       0.18170000       0.54460000
   104  H          0.49100000       0.68170000       0.95540000
   105  C          0.61682000       0.91194000       0.27162000
   106  C          0.38318000       0.41194000       0.22838000
   107  C          0.38318000       0.08806000       0.72838000
   108  C          0.61682000       0.58806000       0.77162000
   109  H          0.62420000       0.00940000       0.22110000
   110  H          0.37580000       0.50940000       0.27890000
   111  H          0.37580000      -0.00940000       0.77890000
   112  H          0.62420000       0.49060000       0.72110000
