data_FINBAI01
_symmetry_space_group_name_H-M    'P1'
_symmetry_Int_Tables_number       1
loop_
_symmetry_equiv_pos_site_id
_symmetry_equiv_pos_as_xyz
1 x,y,z
_cell_length_a                   9.914183
_cell_length_b                   10.450345
_cell_length_c                   6.289413
_cell_angle_alpha                90.0
_cell_angle_beta                 101.13734
_cell_angle_gamma                90.0
loop_
_atom_site_label
_atom_site_type_symbol
_atom_site_fract_x
_atom_site_fract_y
_atom_site_fract_z
     1  Cl         0.88541750       0.35742960       0.47639510
     2  Cl         0.11458250       0.85742960       0.02360490
     3  Cl         0.11458250       0.64257040       0.52360490
     4  Cl         0.88541750       0.14257040       0.97639510
     5  Cl         0.62728250       0.66264570       0.89119710
     6  Cl         0.37271750       0.16264570       0.60880290
     7  Cl         0.37271750       0.33735430       0.10880290
     8  Cl         0.62728250       0.83735430       0.39119710
     9  S          0.70646150       0.39486950       0.55556890
    10  S          0.29353850       0.89486950       0.94443110
    11  S          0.29353850       0.60513050       0.44443110
    12  S          0.70646150       0.10513050       0.05556890
    13  S          0.80668350       0.58390350       0.88147990
    14  S          0.19331650       0.08390350       0.61852010
    15  S          0.19331650       0.41609650       0.11852010
    16  S          0.80668350       0.91609650       0.38147990
    17  O          0.75767200       0.43939200       0.80650400
    18  O          0.24232800       0.93939200       0.69349600
    19  O          0.24232800       0.56060800       0.19349600
    20  O          0.75767200       0.06060800       0.30650400
    21  O          0.63779300       0.27822300       0.57510500
    22  O          0.36220700       0.77822300       0.92489500
    23  O          0.36220700       0.72177700       0.42489500
    24  O          0.63779300       0.22177700       0.07510500
    25  O          0.64389300       0.49891300       0.43084500
    26  O          0.35610700      -0.00108700       0.06915500
    27  O          0.35610700       0.50108700       0.56915500
    28  O          0.64389300       0.00108700       0.93084500
    29  O          0.88072300       0.56746300       0.09526500
    30  O          0.11927700       0.06746300       0.40473500
    31  O          0.11927700       0.43253700       0.90473500
    32  O          0.88072300       0.93253700       0.59526500
    33  O          0.86352300       0.64291300       0.71694600
    34  O          0.13647700       0.14291300       0.78305400
    35  O          0.13647700       0.35708700       0.28305400
    36  O          0.86352300       0.85708700       0.21694600
