data_FINBAI
_symmetry_space_group_name_H-M    'P1'
_symmetry_Int_Tables_number       1
loop_
_symmetry_equiv_pos_site_id
_symmetry_equiv_pos_as_xyz
1 x,y,z
_cell_length_a                   5.893835
_cell_length_b                   17.443566
_cell_length_c                   6.294103
_cell_angle_alpha                90.0
_cell_angle_beta                 93.27216
_cell_angle_gamma                90.0
loop_
_atom_site_label
_atom_site_type_symbol
_atom_site_fract_x
_atom_site_fract_y
_atom_site_fract_z
     1  Cl         0.50157200       0.34777200       0.52915200
     2  Cl         0.49842800       0.84777200       0.97084800
     3  Cl         0.49842800       0.65222800       0.47084800
     4  Cl         0.50157200       0.15222800       0.02915200
     5  Cl         0.83015800       0.40445200       0.00794200
     6  Cl         0.16984200       0.90445200       0.49205800
     7  Cl         0.16984200       0.59554800      -0.00794200
     8  Cl         0.83015800       0.09554800       0.50794200
     9  S          0.25651200       0.42207200       0.45797200
    10  S          0.74348800       0.92207200       0.04202800
    11  S          0.74348800       0.57792800       0.54202800
    12  S          0.25651200       0.07792800       0.95797200
    13  S          0.00480200       0.32358200       0.16111200
    14  S         -0.00480200       0.82358200       0.33888800
    15  S         -0.00480200       0.67641800       0.83888800
    16  S          0.00480200       0.17641800       0.66111200
    17  O          0.04768500       0.36422200       0.39361400
    18  O          0.95231500       0.86422200       0.10638600
    19  O          0.95231500       0.63577800       0.60638600
    20  O          0.04768500       0.13577800       0.89361400
    21  O          0.31276700       0.46467200       0.27780800
    22  O          0.68723300       0.96467200       0.22219200
    23  O          0.68723300       0.53532800       0.72219200
    24  O          0.31276700       0.03532800       0.77780800
    25  O          0.19024700       0.45673200       0.64706700
    26  O          0.80975300       0.95673200       0.85293300
    27  O          0.80975300       0.54326800       0.35293300
    28  O          0.19024700       0.04326800       0.14706700
    29  O          0.21475800       0.31298300       0.06830700
    30  O          0.78524200       0.81298300       0.43169300
    31  O          0.78524200       0.68701700       0.93169300
    32  O          0.21475800       0.18701700       0.56830700
    33  O          0.85796300       0.26220200       0.20387600
    34  O          0.14203700       0.76220200       0.29612400
    35  O          0.14203700       0.73779800       0.79612400
    36  O          0.85796300       0.23779800       0.70387600
