data_FINBAI02
_symmetry_space_group_name_H-M    'P1'
_symmetry_Int_Tables_number       1
loop_
_symmetry_equiv_pos_site_id
_symmetry_equiv_pos_as_xyz
1 x,y,z
_cell_length_a                   7.61225
_cell_length_b                   9.44744
_cell_length_c                   14.463511
_cell_angle_alpha                83.9005
_cell_angle_beta                 78.4597
_cell_angle_gamma                72.1175
loop_
_atom_site_label
_atom_site_type_symbol
_atom_site_fract_x
_atom_site_fract_y
_atom_site_fract_z
     1  O          0.95117000       0.41482000       0.18039150
     2  O          0.04883000       0.58518000       0.81960850
     3  O          0.73647000       0.39622000       0.33185150
     4  O          0.26353000       0.60378000       0.66814850
     5  Cl         0.34830900       0.38062700       0.23436500
     6  Cl         0.65169100       0.61937300       0.76563500
     7  Cl         0.85129890       0.15316800       0.21841600
     8  Cl         0.14870110       0.84683200       0.78158400
     9  O          0.06043000       0.25802000       0.31847130
    10  O          0.93957000       0.74198000       0.68152870
    11  S          0.28005900       0.19462700       0.26848500
    12  S          0.71994100       0.80537300       0.73151500
    13  O          0.36763000       0.11992000       0.34455160
    14  O          0.63237000       0.88008000       0.65544840
    15  S          0.88890100       0.33227700       0.26073400
    16  S          0.11109900       0.66772300       0.73926600
    17  O          0.29093000       0.12522000       0.18542150
    18  O          0.70907000       0.87478000       0.81457850
    19  S          0.87835800       0.68926300       0.42382400
    20  S          0.12164200       0.31073700       0.57617600
    21  S          0.17184900       0.82115300       0.42742400
    22  S          0.82815100       0.17884700       0.57257600
    23  O          0.00753000       0.74828000       0.47872120
    24  O         -0.00753000       0.25172000       0.52127880
    25  O          0.79303000       0.60508000       0.49486170
    26  O          0.20697000       0.39492000       0.50513830
    27  O          0.12313000       0.89968000       0.34344150
    28  O          0.87687000       0.10032000       0.65655850
    29  Cl         0.68898900       0.87732300       0.39707500
    30  Cl         0.31101100       0.12267700       0.60292500
    31  Cl         0.38339900       0.64075300       0.39503500
    32  Cl         0.61660100       0.35924700       0.60496500
    33  O          0.98663000       0.62978000       0.33753150
    34  O          0.01337000       0.37022000       0.66246850
    35  O          0.20643000       0.88818000       0.50181150
    36  O          0.79357000       0.11182000       0.49818850
    37  Cl         0.80035900       0.65820800       0.00698500
    38  Cl         0.19964100       0.34179200      -0.00698500
    39  S          0.61281900       0.71916800       0.12212400
    40  S          0.38718100       0.28083200       0.87787600
    41  Cl         0.11750100       0.78289900       0.13478500
    42  Cl         0.88249900       0.21710100       0.86521500
    43  S          0.29858900       0.82682800       0.02559500
    44  S          0.70141100       0.17317200       0.97440500
    45  O          0.37953000       0.69843000       0.97236840
    46  O          0.62047000       0.30157000       0.02763160
    47  O          0.21963000       0.96863000       0.98508000
    48  O          0.78037000       0.03137000       0.01492000
    49  O          0.45453000       0.85282000       0.07860150
    50  O          0.54547000       0.14718000       0.92139850
    51  O          0.53603000       0.60132000       0.15705160
    52  O          0.46397000       0.39868000       0.84294840
    53  O          0.68323000       0.79233000       0.17931160
    54  O          0.31677000       0.20767000       0.82068840
