data_FITYOZ
_symmetry_space_group_name_H-M    'P1'
_symmetry_Int_Tables_number       1
loop_
_symmetry_equiv_pos_site_id
_symmetry_equiv_pos_as_xyz
1 x,y,z
_cell_length_a                   25.85076
_cell_length_b                   6.627001
_cell_length_c                   13.85773
_cell_angle_alpha                90.0
_cell_angle_beta                 101.8882
_cell_angle_gamma                90.0
loop_
_atom_site_label
_atom_site_type_symbol
_atom_site_fract_x
_atom_site_fract_y
_atom_site_fract_z
     1  F          0.06464400       0.46889130       0.48928700
     2  F          0.93535600       0.46889130       0.01071300
     3  F          0.56464400       0.96889130       0.48928700
     4  F          0.43535600       0.96889130       0.01071300
     5  F          0.93535600       0.53110870       0.51071300
     6  F          0.06464400       0.53110870       0.98928700
     7  F          0.43535600       0.03110870       0.51071300
     8  F          0.56464400       0.03110870       0.98928700
     9  F          0.17597400       0.77052850       0.51879800
    10  F          0.82402600       0.77052850       0.98120200
    11  F          0.67597400       0.27052850       0.51879800
    12  F          0.32402600       0.27052850       0.98120200
    13  F          0.82402600       0.22947150       0.48120200
    14  F          0.17597400       0.22947150       0.01879800
    15  F          0.32402600       0.72947150       0.48120200
    16  F          0.67597400       0.72947150       0.01879800
    17  O          0.99012500       0.93934830       0.36954900
    18  O          0.00987500       0.93934830       0.13045100
    19  O          0.49012500       0.43934830       0.36954900
    20  O          0.50987500       0.43934830       0.13045100
    21  O          0.00987500       0.06065170       0.63045100
    22  O          0.99012500       0.06065170       0.86954900
    23  O          0.50987500       0.56065170       0.63045100
    24  O          0.49012500       0.56065170       0.86954900
    25  N          0.98591500       0.28242000       0.36365100
    26  N          0.01408500       0.28242000       0.13634900
    27  N          0.48591500       0.78242000       0.36365100
    28  N          0.51408500       0.78242000       0.13634900
    29  N          0.01408500       0.71758000       0.63634900
    30  N          0.98591500       0.71758000       0.86365100
    31  N          0.51408500       0.21758000       0.63634900
    32  N          0.48591500       0.21758000       0.86365100
    33  H          0.00420000       0.39090000       0.38570000
    34  H         -0.00420000       0.39090000       0.11430000
    35  H          0.50420000       0.89090000       0.38570000
    36  H          0.49580000       0.89090000       0.11430000
    37  H         -0.00420000       0.60910000       0.61430000
    38  H          0.00420000       0.60910000       0.88570000
    39  H          0.49580000       0.10910000       0.61430000
    40  H          0.50420000       0.10910000       0.88570000
    41  C          0.93535400       0.31912000       0.30496120
    42  C          0.06464600       0.31912000       0.19503880
    43  C          0.43535400       0.81912000       0.30496120
    44  C          0.56464600       0.81912000       0.19503880
    45  C          0.06464600       0.68088000       0.69503880
    46  C          0.93535400       0.68088000       0.80496120
    47  C          0.56464600       0.18088000       0.69503880
    48  C          0.43535400       0.18088000       0.80496120
    49  C          0.89636400       0.17262000       0.28070120
    50  C          0.10363600       0.17262000       0.21929880
    51  C          0.39636400       0.67262000       0.28070120
    52  C          0.60363600       0.67262000       0.21929880
    53  C          0.10363600       0.82738000       0.71929880
    54  C          0.89636400       0.82738000       0.78070120
    55  C          0.60363600       0.32738000       0.71929880
    56  C          0.39636400       0.32738000       0.78070120
    57  H          0.90320000       0.03730000       0.30230000
    58  H          0.09680000       0.03730000       0.19770000
    59  H          0.40320000       0.53730000       0.30230000
    60  H          0.59680000       0.53730000       0.19770000
    61  H          0.09680000       0.96270000       0.69770000
    62  H          0.90320000       0.96270000       0.80230000
    63  H          0.59680000       0.46270000       0.69770000
    64  H          0.40320000       0.46270000       0.80230000
    65  C          0.84701400       0.22642000       0.22405120
    66  C          0.15298600       0.22642000       0.27594880
    67  C          0.34701400       0.72642000       0.22405120
    68  C          0.65298600       0.72642000       0.27594880
    69  C          0.15298600       0.77358000       0.77594880
    70  C          0.84701400       0.77358000       0.72405120
    71  C          0.65298600       0.27358000       0.77594880
    72  C          0.34701400       0.27358000       0.72405120
    73  C          0.83728300       0.42502000       0.19198130
    74  C          0.16271700       0.42502000       0.30801870
    75  C          0.33728300       0.92502000       0.19198130
    76  C          0.66271700       0.92502000       0.30801870
    77  C          0.16271700       0.57498000       0.80801870
    78  C          0.83728300       0.57498000       0.69198130
    79  C          0.66271700       0.07498000       0.80801870
    80  C          0.33728300       0.07498000       0.69198130
    81  H          0.80390000       0.46100000       0.15300000
    82  H          0.19610000       0.46100000       0.34700000
    83  H          0.30390000       0.96100000       0.15300000
    84  H          0.69610000       0.96100000       0.34700000
    85  H          0.19610000       0.53900000       0.84700000
    86  H          0.80390000       0.53900000       0.65300000
    87  H          0.69610000       0.03900000       0.84700000
    88  H          0.30390000       0.03900000       0.65300000
    89  C          0.87642300       0.56923000       0.21701130
    90  C          0.12357700       0.56923000       0.28298870
    91  C          0.37642300       0.06923000       0.21701130
    92  C          0.62357700       0.06923000       0.28298870
    93  C          0.12357700       0.43077000       0.78298870
    94  C          0.87642300       0.43077000       0.71701130
    95  C          0.62357700       0.93077000       0.78298870
    96  C          0.37642300       0.93077000       0.71701130
    97  H          0.86970000       0.70450000       0.19540000
    98  H          0.13030000       0.70450000       0.30460000
    99  H          0.36970000       0.20450000       0.19540000
   100  H          0.63030000       0.20450000       0.30460000
   101  H          0.13030000       0.29550000       0.80460000
   102  H          0.86970000       0.29550000       0.69540000
   103  H          0.63030000       0.79550000       0.80460000
   104  H          0.36970000       0.79550000       0.69540000
   105  C          0.92519300       0.51782000       0.27319120
   106  C          0.07480700       0.51782000       0.22680880
   107  C          0.42519300       0.01782000       0.27319120
   108  C          0.57480700       0.01782000       0.22680880
   109  C          0.07480700       0.48218000       0.72680880
   110  C          0.92519300       0.48218000       0.77319120
   111  C          0.57480700      -0.01782000       0.72680880
   112  C          0.42519300      -0.01782000       0.77319120
   113  H          0.95190000       0.61770000       0.29020000
   114  H          0.04810000       0.61770000       0.20980000
   115  H          0.45190000       0.11770000       0.29020000
   116  H          0.54810000       0.11770000       0.20980000
   117  H          0.04810000       0.38230000       0.70980000
   118  H          0.95190000       0.38230000       0.79020000
   119  H          0.54810000       0.88230000       0.70980000
   120  H          0.45190000       0.88230000       0.79020000
   121  C          0.06644600       0.11962000       0.44944120
   122  C          0.93355400       0.11962000       0.05055880
   123  C          0.56644600       0.61962000       0.44944120
   124  C          0.43355400       0.61962000       0.05055880
   125  C          0.93355400       0.88038000       0.55055880
   126  C          0.06644600       0.88038000       0.94944120
   127  C          0.43355400       0.38038000       0.55055880
   128  C          0.56644600       0.38038000       0.94944120
   129  C          0.09160700       0.28992000       0.49457120
   130  C          0.90839300       0.28992000       0.00542880
   131  C          0.59160700       0.78992000       0.49457120
   132  C          0.40839300       0.78992000       0.00542880
   133  C          0.90839300       0.71008000       0.50542880
   134  C          0.09160700       0.71008000      -0.00542880
   135  C          0.40839300       0.21008000       0.50542880
   136  C          0.59160700       0.21008000      -0.00542880
   137  C          0.14290700       0.29203000       0.54626130
   138  C          0.85709300       0.29203000       0.95373870
   139  C          0.64290700       0.79203000       0.54626130
   140  C          0.35709300       0.79203000       0.95373870
   141  C          0.85709300       0.70797000       0.45373870
   142  C          0.14290700       0.70797000       0.04626130
   143  C          0.35709300       0.20797000       0.45373870
   144  C          0.64290700       0.20797000       0.04626130
   145  H          0.15820000       0.41270000       0.57630000
   146  H          0.84180000       0.41270000       0.92370000
   147  H          0.65820000       0.91270000       0.57630000
   148  H          0.34180000       0.91270000       0.92370000
   149  H          0.84180000       0.58730000       0.42370000
   150  H          0.15820000       0.58730000       0.07630000
   151  H          0.34180000       0.08730000       0.42370000
   152  H          0.65820000       0.08730000       0.07630000
   153  C          0.17188700       0.11613000       0.55396130
   154  C          0.82811300       0.11613000       0.94603870
   155  C          0.67188700       0.61613000       0.55396130
   156  C          0.32811300       0.61613000       0.94603870
   157  C          0.82811300       0.88387000       0.44603870
   158  C          0.17188700       0.88387000       0.05396130
   159  C          0.32811300       0.38387000       0.44603870
   160  C          0.67188700       0.38387000       0.05396130
   161  H          0.20770000       0.11320000       0.58830000
   162  H          0.79230000       0.11320000       0.91170000
   163  H          0.70770000       0.61320000       0.58830000
   164  H          0.29230000       0.61320000       0.91170000
   165  H          0.79230000       0.88680000       0.41170000
   166  H          0.20770000       0.88680000       0.08830000
   167  H          0.29230000       0.38680000       0.41170000
   168  H          0.70770000       0.38680000       0.08830000
   169  C          0.14756700       0.94578000       0.51066130
   170  C          0.85243300       0.94578000       0.98933870
   171  C          0.64756700       0.44578000       0.51066130
   172  C          0.35243300       0.44578000       0.98933870
   173  C          0.85243300       0.05422000       0.48933870
   174  C          0.14756700       0.05422000       0.01066130
   175  C          0.35243300       0.55422000       0.48933870
   176  C          0.64756700       0.55422000       0.01066130
   177  C          0.09614700       0.94217000       0.45967130
   178  C          0.90385300       0.94217000       0.04032870
   179  C          0.59614700       0.44217000       0.45967130
   180  C          0.40385300       0.44217000       0.04032870
   181  C          0.90385300       0.05783000       0.54032870
   182  C          0.09614700       0.05783000       0.95967130
   183  C          0.40385300       0.55783000       0.54032870
   184  C          0.59614700       0.55783000       0.95967130
   185  H          0.08080000       0.81990000       0.43150000
   186  H          0.91920000       0.81990000       0.06850000
   187  H          0.58080000       0.31990000       0.43150000
   188  H          0.41920000       0.31990000       0.06850000
   189  H          0.91920000       0.18010000       0.56850000
   190  H          0.08080000       0.18010000       0.93150000
   191  H          0.41920000       0.68010000       0.56850000
   192  H          0.58080000       0.68010000       0.93150000
   193  C          0.01052700       0.10402000       0.39111120
   194  C          0.98947300       0.10402000       0.10888880
   195  C          0.51052700       0.60402000       0.39111120
   196  C          0.48947300       0.60402000       0.10888880
   197  C          0.98947300       0.89598000       0.60888880
   198  C          0.01052700       0.89598000       0.89111120
   199  C          0.48947300       0.39598000       0.60888880
   200  C          0.51052700       0.39598000       0.89111120
   201  C          0.80566300       0.07662000       0.19900130
   202  C          0.19433700       0.07662000       0.30099870
   203  C          0.30566300       0.57662000       0.19900130
   204  C          0.69433700       0.57662000       0.30099870
   205  C          0.19433700       0.92338000       0.80099870
   206  C          0.80566300       0.92338000       0.69900130
   207  C          0.69433700       0.42338000       0.80099870
   208  C          0.30566300       0.42338000       0.69900130
   209  C          0.77184300       0.95607000       0.17882140
   210  C          0.22815700       0.95607000       0.32117860
   211  C          0.27184300       0.45607000       0.17882140
   212  C          0.72815700       0.45607000       0.32117860
   213  C          0.22815700       0.04393000       0.82117860
   214  C          0.77184300       0.04393000       0.67882140
   215  C          0.72815700       0.54393000       0.82117860
   216  C          0.27184300       0.54393000       0.67882140
   217  H          0.74450000       0.85870000       0.16250000
   218  H          0.25550000       0.85870000       0.33750000
   219  H          0.24450000       0.35870000       0.16250000
   220  H          0.75550000       0.35870000       0.33750000
   221  H          0.25550000       0.14130000       0.83750000
   222  H          0.74450000       0.14130000       0.66250000
   223  H          0.75550000       0.64130000       0.83750000
   224  H          0.24450000       0.64130000       0.66250000
