data_FITYOZ01
_symmetry_space_group_name_H-M    'P1'
_symmetry_Int_Tables_number       1
loop_
_symmetry_equiv_pos_site_id
_symmetry_equiv_pos_as_xyz
1 x,y,z
_cell_length_a                   6.77282
_cell_length_b                   11.12043
_cell_length_c                   15.53793
_cell_angle_alpha                90.0
_cell_angle_beta                 93.92101
_cell_angle_gamma                90.0
loop_
_atom_site_label
_atom_site_type_symbol
_atom_site_fract_x
_atom_site_fract_y
_atom_site_fract_z
     1  F          0.44948110       0.18554700       0.49770500
     2  F          0.05051890       0.68554700       0.00229500
     3  F          0.55051890       0.81445300       0.50229500
     4  F          0.94948110       0.31445300      -0.00229500
     5  F          0.76720870       0.05617800       0.63568600
     6  F          0.73279130       0.55617800       0.86431400
     7  F          0.23279130       0.94382200       0.36431400
     8  F          0.26720870       0.44382200       0.13568600
     9  O          0.92680860       0.37854900       0.43523600
    10  O          0.57319140       0.87854900       0.06476400
    11  O          0.07319140       0.62145100       0.56476400
    12  O          0.42680860       0.12145100       0.93523600
    13  N          0.26091160       0.38201100       0.42992700
    14  N          0.23908840       0.88201100       0.07007300
    15  N          0.73908840       0.61798900       0.57007300
    16  N          0.76091160       0.11798900       0.92992700
    17  H          0.36950000       0.34300000       0.44720000
    18  H          0.13050000       0.84300000       0.05280000
    19  H          0.63050000       0.65700000       0.55280000
    20  H          0.86950000       0.15700000       0.94720000
    21  C          0.28714190       0.48555110       0.37915800
    22  C          0.21285810       0.98555110       0.12084200
    23  C          0.71285810       0.51444890       0.62084200
    24  C          0.78714190       0.01444890       0.87915800
    25  C          0.13392000       0.54163120       0.33034800
    26  C          0.36608000       0.04163120       0.16965200
    27  C          0.86608000       0.45836880       0.66965200
    28  C          0.63392000       0.95836880       0.83034800
    29  H          0.00270000       0.51150000       0.33040000
    30  H          0.49730000       0.01150000       0.16960000
    31  H         -0.00270000       0.48850000       0.66960000
    32  H          0.50270000      -0.01150000       0.83040000
    33  C          0.17492000       0.64308120       0.28111800
    34  C          0.32508000       0.14308120       0.21888200
    35  C          0.82508000       0.35691880       0.71888200
    36  C          0.67492000       0.85691880       0.78111800
    37  C          0.36732000       0.68786120       0.28112800
    38  C          0.13268000       0.18786120       0.21887200
    39  C          0.63268000       0.31213880       0.71887200
    40  C          0.86732000       0.81213880       0.78112800
    41  H          0.39440000       0.75710000       0.24810000
    42  H          0.10560000       0.25710000       0.25190000
    43  H          0.60560000       0.24290000       0.75190000
    44  H          0.89440000       0.74290000       0.74810000
    45  C          0.51862000       0.63058120       0.32972800
    46  C         -0.01862000       0.13058120       0.17027200
    47  C          0.48138000       0.36941880       0.67027200
    48  C          0.01862000       0.86941880       0.82972800
    49  H          0.65000000       0.66060000       0.32960000
    50  H          0.85000000       0.16060000       0.17040000
    51  H          0.35000000       0.33940000       0.67040000
    52  H          0.15000000       0.83940000       0.82960000
    53  C          0.48011190       0.52998120       0.37842800
    54  C          0.01988810       0.02998120       0.12157200
    55  C          0.51988810       0.47001880       0.62157200
    56  C         -0.01988810       0.97001880       0.87842800
    57  H          0.58490000       0.49110000       0.41140000
    58  H          0.91510000      -0.00890000       0.08860000
    59  H          0.41510000       0.50890000       0.58860000
    60  H          0.08490000       0.00890000       0.91140000
    61  C          0.10718190       0.22559110       0.51214700
    62  C          0.39281810       0.72559110       0.98785300
    63  C          0.89281810       0.77440890       0.48785300
    64  C          0.60718190       0.27440890       0.01214700
    65  C          0.27533190       0.15642120       0.53183800
    66  C          0.22466810       0.65642120       0.96816200
    67  C          0.72466810       0.84357880       0.46816200
    68  C          0.77533190       0.34357880       0.03183800
    69  C          0.27872000       0.05709120       0.58528800
    70  C          0.22128000       0.55709120       0.91471200
    71  C          0.72128000       0.94290880       0.41471200
    72  C          0.77872000       0.44290880       0.08528800
    73  H          0.39740000       0.01290000       0.59730000
    74  H          0.10260000       0.51290000       0.90270000
    75  H          0.60260000       0.98710000       0.40270000
    76  H          0.89740000       0.48710000       0.09730000
    77  C          0.10562000       0.02329120       0.62101800
    78  C          0.39438000       0.52329120       0.87898200
    79  C          0.89438000       0.97670880       0.37898200
    80  C          0.60562000       0.47670880       0.12101800
    81  H          0.10300000       0.95570000       0.65830000
    82  H          0.39700000       0.45570000       0.84170000
    83  H          0.89700000       0.04430000       0.34170000
    84  H          0.60300000       0.54430000       0.15830000
    85  C          0.93748000       0.08987120       0.60132800
    86  C          0.56252000       0.58987120       0.89867200
    87  C          0.06252000       0.91012880       0.39867200
    88  C          0.43748000       0.41012880       0.10132800
    89  C          0.93388000       0.18908120       0.54854800
    90  C          0.56612000       0.68908120       0.95145200
    91  C          0.06612000       0.81091880       0.45145200
    92  C          0.43388000       0.31091880       0.04854800
    93  H          0.81440000       0.23260000       0.53690000
    94  H          0.68560000       0.73260000       0.96310000
    95  H          0.18560000       0.76740000       0.46310000
    96  H          0.31440000       0.26740000       0.03690000
    97  C          0.08984190       0.33537110       0.45524800
    98  C          0.41015810       0.83537110       0.04475200
    99  C          0.91015810       0.66462890       0.54475200
   100  C          0.58984190       0.16462890       0.95524800
   101  C          0.01462000       0.70092120       0.23019800
   102  C          0.48538000       0.20092120       0.26980200
   103  C         -0.01462000       0.29907880       0.76980200
   104  C          0.51462000       0.79907880       0.73019800
   105  C          0.88628000       0.74683130       0.19060900
   106  C          0.61372000       0.24683130       0.30939100
   107  C          0.11372000       0.25316870       0.80939100
   108  C          0.38628000       0.75316870       0.69060900
   109  H          0.78030000       0.78480000       0.15790000
   110  H          0.71970000       0.28480000       0.34210000
   111  H          0.21970000       0.21520000       0.84210000
   112  H          0.28030000       0.71520000       0.65790000
