data_FITYOZ02
_symmetry_space_group_name_H-M    'P1'
_symmetry_Int_Tables_number       1
loop_
_symmetry_equiv_pos_site_id
_symmetry_equiv_pos_as_xyz
1 x,y,z
_cell_length_a                   15.06584
_cell_length_b                   6.62132
_cell_length_c                   23.17606
_cell_angle_alpha                90.0
_cell_angle_beta                 90.0
_cell_angle_gamma                90.0
loop_
_atom_site_label
_atom_site_type_symbol
_atom_site_fract_x
_atom_site_fract_y
_atom_site_fract_z
     1  F          0.44805140       0.22393000       0.40113100
     2  F          0.55194860       0.77607000       0.90113100
     3  F          0.05194860       0.72393000       0.90113100
     4  F          0.94805140       0.27607000       0.40113100
     5  F          0.44071170       0.52893000       0.27799100
     6  F          0.55928830       0.47107000       0.77799100
     7  F          0.05928830       0.02893000       0.77799100
     8  F          0.94071170       0.97107000       0.27799100
     9  O          0.55130170       0.69414000       0.47297120
    10  O          0.44869830       0.30586000       0.97297120
    11  O          0.94869830       0.19414000       0.97297120
    12  O          0.05130170       0.80586000       0.47297120
    13  N          0.55213190       0.03814000       0.47905120
    14  N          0.44786810       0.96186000       0.97905120
    15  N          0.94786810       0.53814000       0.97905120
    16  N          0.05213190       0.46186000       0.47905120
    17  H          0.53040000       0.14680000       0.46240000
    18  H          0.46960000       0.85320000       0.96240000
    19  H          0.96960000       0.64680000       0.96240000
    20  H          0.03040000       0.35320000       0.46240000
    21  C          0.60312000       0.07285000       0.52916150
    22  C          0.39688000       0.92715000       0.02916150
    23  C          0.89688000       0.57285000       0.02916150
    24  C          0.10312000       0.42715000       0.52916150
    25  C          0.62622000       0.92475000       0.56861160
    26  C          0.37378000       0.07525000       0.06861160
    27  C          0.87378000       0.42475000       0.06861160
    28  C          0.12622000       0.57525000       0.56861160
    29  H          0.60830000       0.78870000       0.56270000
    30  H          0.39170000       0.21130000       0.06270000
    31  H          0.89170000       0.28870000       0.06270000
    32  H          0.10830000       0.71130000       0.56270000
    33  C          0.67652000       0.97715000       0.61751150
    34  C          0.32348000       0.02285000       0.11751150
    35  C          0.82348000       0.47715000       0.11751150
    36  C          0.17652000       0.52285000       0.61751150
    37  C          0.70382000       0.17645000       0.62545170
    38  C          0.29618000       0.82355000       0.12545170
    39  C          0.79618000       0.67645000       0.12545170
    40  C          0.20382000       0.32355000       0.62545170
    41  H          0.73900000       0.21180000       0.65800000
    42  H          0.26100000       0.78820000       0.15800000
    43  H          0.76100000       0.71180000       0.15800000
    44  H          0.23900000       0.28820000       0.65800000
    45  C          0.67952000       0.32296000       0.58564170
    46  C          0.32048000       0.67704000       0.08564170
    47  C          0.82048000       0.82296000       0.08564170
    48  C          0.17952000       0.17704000       0.58564170
    49  H          0.69770000       0.45890000       0.59120000
    50  H          0.30230000       0.54110000       0.09120000
    51  H          0.80230000       0.95890000       0.09120000
    52  H          0.19770000       0.04110000       0.59120000
    53  C          0.62902000       0.27325000       0.53793150
    54  C          0.37098000       0.72675000       0.03793150
    55  C          0.87098000       0.77325000       0.03793150
    56  C          0.12902000       0.22675000       0.53793150
    57  H          0.61200000       0.37480000       0.51120000
    58  H          0.38800000       0.62520000       0.01120000
    59  H          0.88800000       0.87480000       0.01120000
    60  H          0.11200000       0.12520000       0.51120000
    61  C          0.48532000       0.87515000       0.39568150
    62  C          0.51468000       0.12485000       0.89568150
    63  C          0.01468000       0.37515000       0.89568150
    64  C          0.98532000       0.62485000       0.39568150
    65  C          0.44722000       0.04465000       0.37143160
    66  C          0.55278000       0.95535000       0.87143160
    67  C          0.05278000       0.54465000       0.87143160
    68  C          0.94722000       0.45535000       0.37143160
    69  C          0.40672000       0.04786000       0.31803150
    70  C          0.59328000       0.95214000       0.81803150
    71  C          0.09328000       0.54786000       0.81803150
    72  C          0.90672000       0.45214000       0.31803150
    73  H          0.38050000       0.16830000       0.30370000
    74  H          0.61950000       0.83170000       0.80370000
    75  H          0.11950000       0.66830000       0.80370000
    76  H          0.88050000       0.33170000       0.30370000
    77  C          0.40512000       0.87286000       0.28600170
    78  C          0.59488000       0.12714000       0.78600170
    79  C          0.09488000       0.37286000       0.78600170
    80  C          0.90512000       0.62714000       0.28600170
    81  H          0.37870000       0.87020000       0.24880000
    82  H          0.62130000       0.12980000       0.74880000
    83  H          0.12130000       0.37020000       0.74880000
    84  H          0.87870000       0.62980000       0.24880000
    85  C          0.44243000       0.70236000       0.30909170
    86  C          0.55757000       0.29764000       0.80909170
    87  C          0.05757000       0.20236000       0.80909170
    88  C          0.94243000       0.79764000       0.30909170
    89  C          0.48142000       0.69835000       0.36315160
    90  C          0.51858000       0.30165000       0.86315160
    91  C          0.01858000       0.19835000       0.86315160
    92  C          0.98142000       0.80165000       0.36315160
    93  H          0.50520000       0.57610000       0.37800000
    94  H          0.49480000       0.42390000       0.87800000
    95  H         -0.00520000       0.07610000       0.87800000
    96  H          0.00520000       0.92390000       0.37800000
    97  C          0.53192000       0.86065000       0.45291150
    98  C          0.46808000       0.13935000       0.95291150
    99  C          0.96808000       0.36065000       0.95291150
   100  C          0.03192000       0.63935000       0.45291150
   101  C          0.69842000       0.82525000       0.65975170
   102  C          0.30158000       0.17475000       0.15975170
   103  C          0.80158000       0.32525000       0.15975170
   104  C          0.19842000       0.67475000       0.65975170
   105  C          0.71503000       0.70236000       0.69444180
   106  C          0.28497000       0.29764000       0.19444180
   107  C          0.78497000       0.20236000       0.19444180
   108  C          0.21503000       0.79764000       0.69444180
   109  H          0.72840000       0.60250000       0.72260000
   110  H          0.27160000       0.39750000       0.22260000
   111  H          0.77160000       0.10250000       0.22260000
   112  H          0.22840000       0.89750000       0.72260000
   113  F          0.92266140       0.16623000       0.55632100
   114  F          0.07733860       0.83377000       0.05632100
   115  F          0.57733860       0.66623000       0.05632100
   116  F          0.42266140       0.33377000       0.55632100
   117  F          0.93783160       0.44913000       0.66927100
   118  F          0.06216840       0.55087000       0.16927100
   119  F          0.56216840       0.94913000       0.16927100
   120  F          0.43783160       0.05087000       0.66927100
   121  O          0.81524190       0.64614000       0.48081130
   122  O          0.18475810       0.35386000       0.98081130
   123  O          0.68475810       0.14614000       0.98081130
   124  O          0.31524190       0.85386000       0.48081130
   125  N          0.81752000      -0.01056000       0.47614140
   126  N          0.18248000       0.01056000       0.97614140
   127  N          0.68248000       0.48944000       0.97614140
   128  N          0.31752000       0.51056000       0.47614140
   129  H          0.83890000       0.09730000       0.49340000
   130  H          0.16110000       0.90270000       0.99340000
   131  H          0.66110000       0.59730000       0.99340000
   132  H          0.33890000       0.40270000       0.49340000
   133  C          0.76852000       0.02535000       0.42557150
   134  C          0.23148000       0.97465000       0.92557150
   135  C          0.73148000       0.52535000       0.92557150
   136  C          0.26852000       0.47465000       0.42557150
   137  C          0.74742000       0.87695000       0.38531150
   138  C          0.25258000       0.12305000       0.88531150
   139  C          0.75258000       0.37695000       0.88531150
   140  C          0.24742000       0.62305000       0.38531150
   141  H          0.76660000       0.74160000       0.39090000
   142  H          0.23340000       0.25840000       0.89090000
   143  H          0.73340000       0.24160000       0.89090000
   144  H          0.26660000       0.75840000       0.39090000
   145  C          0.69782000       0.92885000       0.33650160
   146  C          0.30218000       0.07115000       0.83650160
   147  C          0.80218000       0.42885000       0.83650160
   148  C          0.19782000       0.57115000       0.33650160
   149  C          0.66832000       0.12736000       0.32841170
   150  C          0.33168000       0.87264000       0.82841170
   151  C          0.83168000       0.62736000       0.82841170
   152  C          0.16832000       0.37264000       0.32841170
   153  H          0.63320000       0.16120000       0.29570000
   154  H          0.36680000       0.83880000       0.79570000
   155  H          0.86680000       0.66120000       0.79570000
   156  H          0.13320000       0.33880000       0.29570000
   157  C          0.69072000       0.27375000       0.36845180
   158  C          0.30928000       0.72625000       0.86845180
   159  C          0.80928000       0.77375000       0.86845180
   160  C          0.19072000       0.22625000       0.36845180
   161  H          0.67160000       0.40910000       0.36290000
   162  H          0.32840000       0.59090000       0.86290000
   163  H          0.82840000       0.90910000       0.86290000
   164  H          0.17160000       0.09090000       0.36290000
   165  C          0.74062000       0.22445000       0.41661160
   166  C          0.25938000       0.77555000       0.91661160
   167  C          0.75938000       0.72445000       0.91661160
   168  C          0.24062000       0.27555000       0.41661160
   169  H          0.75600000       0.32630000       0.44370000
   170  H          0.24400000       0.67370000       0.94370000
   171  H          0.74400000       0.82630000       0.94370000
   172  H          0.25600000       0.17370000       0.44370000
   173  C          0.88472000       0.81665000       0.55831150
   174  C          0.11528000       0.18335000       0.05831150
   175  C          0.61528000       0.31665000       0.05831150
   176  C          0.38472000       0.68335000       0.55831150
   177  C          0.92502000      -0.01655000       0.58386150
   178  C          0.07498000       0.01655000       0.08386150
   179  C          0.57498000       0.48345000       0.08386150
   180  C          0.42502000       0.51655000       0.58386150
   181  C          0.96912000       0.97645000       0.63573170
   182  C          0.03088000       0.02355000       0.13573170
   183  C          0.53088000       0.47645000       0.13573170
   184  C          0.46912000       0.52355000       0.63573170
   185  H         -0.00380000       0.09440000       0.65100000
   186  H          0.00380000       0.90560000       0.15100000
   187  H          0.50380000       0.59440000       0.15100000
   188  H          0.49620000       0.40560000       0.65100000
   189  C          0.97362000       0.79555000       0.66553170
   190  C          0.02638000       0.20445000       0.16553170
   191  C          0.52638000       0.29555000       0.16553170
   192  C          0.47362000       0.70445000       0.66553170
   193  H          0.00280000       0.78570000       0.70170000
   194  H         -0.00280000       0.21430000       0.20170000
   195  H          0.49720000       0.28570000       0.20170000
   196  H          0.50280000       0.71430000       0.70170000
   197  C          0.93362000       0.62955000       0.64018170
   198  C          0.06638000       0.37045000       0.14018170
   199  C          0.56638000       0.12955000       0.14018170
   200  C          0.43362000       0.87045000       0.64018170
   201  C          0.89072000       0.63505000       0.58836150
   202  C          0.10928000       0.36495000       0.08836150
   203  C          0.60928000       0.13505000       0.08836150
   204  C          0.39072000       0.86495000       0.58836150
   205  H          0.86520000       0.51560000       0.57280000
   206  H          0.13480000       0.48440000       0.07280000
   207  H          0.63480000       0.01560000       0.07280000
   208  H          0.36520000      -0.01560000       0.57280000
   209  C          0.83612000       0.80955000       0.50188160
   210  C          0.16388000       0.19045000       0.00188160
   211  C          0.66388000       0.30955000       0.00188160
   212  C          0.33612000       0.69045000       0.50188160
   213  C          0.67852000       0.77336000       0.29314170
   214  C          0.32148000       0.22664000       0.79314170
   215  C          0.82148000       0.27336000       0.79314170
   216  C          0.17852000       0.72664000       0.29314170
   217  C          0.66393000       0.65376000       0.25954180
   218  C          0.33607000       0.34624000       0.75954180
   219  C          0.83607000       0.15376000       0.75954180
   220  C          0.16393000       0.84624000       0.25954180
   221  H          0.65170000       0.55330000       0.23130000
   222  H          0.34830000       0.44670000       0.73130000
   223  H          0.84830000       0.05330000       0.73130000
   224  H          0.15170000       0.94670000       0.23130000
