data_FITYAL02
_symmetry_space_group_name_H-M    'P1'
_symmetry_Int_Tables_number       1
loop_
_symmetry_equiv_pos_site_id
_symmetry_equiv_pos_as_xyz
1 x,y,z
_cell_length_a                   8.45702
_cell_length_b                   13.32353
_cell_length_c                   10.50433
_cell_angle_alpha                90.0
_cell_angle_beta                 90.2222
_cell_angle_gamma                90.0
loop_
_atom_site_label
_atom_site_type_symbol
_atom_site_fract_x
_atom_site_fract_y
_atom_site_fract_z
     1  C          0.67714000       0.15682000       0.06233000
     2  C          0.17714000       0.84318000       0.56233000
     3  C          0.57384000       0.19173000       0.96917000
     4  C          0.07384000       0.80827000       0.46917000
     5  H          0.56040000       0.26180000       0.95720000
     6  H          0.06040000       0.73820000       0.45720000
     7  C          0.48974000       0.12462000       0.89327000
     8  C         -0.01026000       0.87538000       0.39327000
     9  C          0.51124000       0.02132000       0.91017000
    10  C          0.01124000       0.97868000       0.41017000
    11  H          0.45320000       0.97480000       0.85980000
    12  H          0.95320000       0.02520000       0.35980000
    13  C          0.61764000       0.98738000       0.00093000
    14  C          0.11764000       0.01262000       0.50093000
    15  H          0.63460000       0.91730000       0.01070000
    16  H          0.13460000       0.08270000       0.51070000
    17  C          0.69934000       0.05402000       0.07753000
    18  C          0.19934000       0.94598000       0.57753000
    19  H          0.77060000       0.02960000       0.14040000
    20  H          0.27060000       0.97040000       0.64040000
    21  C          0.82794000       0.37102000       0.26623000
    22  C          0.32794000       0.62898000       0.76623000
    23  C          0.93274000       0.33022000       0.35303000
    24  C          0.43274000       0.66978000       0.85303000
    25  C          0.03164000       0.39053000       0.42393000
    26  C          0.53164000       0.60947000       0.92393000
    27  C          0.02924000       0.49293000       0.41143000
    28  C          0.52924000       0.50707000       0.91143000
    29  H          0.09810000       0.53350000       0.46110000
    30  H          0.59810000       0.46650000       0.96110000
    31  C          0.92564000       0.53633000       0.32603000
    32  C          0.42564000       0.46367000       0.82603000
    33  H          0.92300000       0.60710000       0.31580000
    34  H          0.42300000       0.39290000       0.81580000
    35  C          0.82504000       0.47552000       0.25513000
    36  C          0.32504000       0.52448000       0.75513000
    37  H          0.75240000       0.50570000       0.19750000
    38  H          0.25240000       0.49430000       0.69750000
    39  C          0.71204000       0.31212000       0.18723000
    40  C          0.21204000       0.68788000       0.68723000
    41  C          0.38084000       0.16303000       0.79827000
    42  C          0.88084000       0.83697000       0.29827000
    43  C          0.29335000       0.19773000       0.72366000
    44  C          0.79335000       0.80227000       0.22366000
    45  H          0.22220000       0.22580000       0.66320000
    46  H          0.72220000       0.77420000       0.16320000
    47  F          0.93763000       0.22993140       0.37452000
    48  F          0.43763000       0.77006860       0.87452000
    49  F          0.13133000       0.34594160       0.50872000
    50  F          0.63133000       0.65405840       0.00872000
    51  O          0.57943000       0.34672160       0.16622000
    52  O          0.07943000       0.65327840       0.66622000
    53  N          0.76393000       0.22361190       0.14163000
    54  N          0.26393000       0.77638810       0.64163000
    55  H          0.86040000       0.20540000       0.16300000
    56  H          0.36040000       0.79460000       0.66300000
    57  C          0.17364000       0.35002000       0.06993000
    58  C          0.67364000       0.64998000       0.56993000
    59  C          0.20764000       0.44832000       0.10403000
    60  C          0.70764000       0.55168000       0.60403000
    61  H          0.28680000       0.46160000       0.16610000
    62  H          0.78680000       0.53840000       0.66610000
    63  C          0.12614000       0.52762000       0.04763000
    64  C          0.62614000       0.47238000       0.54763000
    65  C          0.01134000       0.50783000       0.95487000
    66  C          0.51134000       0.49217000       0.45487000
    67  H          0.95470000       0.56140000       0.91620000
    68  H          0.45470000       0.43860000       0.41620000
    69  C          0.98076000       0.40953000       0.91967000
    70  C          0.48076000       0.59047000       0.41967000
    71  H          0.90300000       0.39610000       0.85650000
    72  H          0.40300000       0.60390000       0.35650000
    73  C          0.06224000       0.33023000       0.97527000
    74  C          0.56224000       0.66977000       0.47527000
    75  H          0.04200000       0.26310000       0.94900000
    76  H          0.54200000       0.73690000       0.44900000
    77  C          0.32524000       0.11962000       0.23883000
    78  C          0.82524000       0.88038000       0.73883000
    79  C          0.33084000       0.01702000       0.22403000
    80  C          0.83084000       0.98298000       0.72403000
    81  C          0.43064000       0.95848000       0.29643000
    82  C          0.93064000       0.04152000       0.79643000
    83  C          0.52724000      -0.00053000       0.38723000
    84  C          0.02724000       0.00053000       0.88723000
    85  H          0.59560000       0.95850000       0.43690000
    86  H          0.09560000       0.04150000       0.93690000
    87  C          0.52254000       0.10293000       0.40473000
    88  C          0.02254000       0.89707000       0.90473000
    89  H          0.58820000       0.13330000       0.46740000
    90  H          0.08820000       0.86670000       0.96740000
    91  C          0.42344000       0.16143000       0.33183000
    92  C          0.92344000       0.83857000       0.83183000
    93  H          0.42170000       0.23200000       0.34510000
    94  H          0.92170000       0.76800000       0.84510000
    95  C          0.21024000       0.18162000       0.16373000
    96  C          0.71024000       0.81838000       0.66373000
    97  C          0.16164000       0.62873000       0.08763000
    98  C          0.66164000       0.37127000       0.58763000
    99  C          0.19375000       0.70953000       0.12624000
   100  C          0.69375000       0.29047000       0.62624000
   101  H          0.21960000       0.77440000       0.15720000
   102  H          0.71960000       0.22560000       0.65720000
   103  F          0.24012000       0.96939870       0.13561180
   104  F          0.74012000       0.03060130       0.63561180
   105  F          0.43022000       0.85797860       0.27562000
   106  F          0.93022000       0.14202140       0.77562000
   107  O          0.07663000       0.15018160       0.13892000
   108  O          0.57663000       0.84981840       0.63892000
   109  N          0.26343000       0.27335190       0.13063000
   110  N          0.76343000       0.72664810       0.63063000
   111  H          0.36290000       0.28710000       0.14810000
   112  H          0.86290000       0.71290000       0.64810000
