data_FITYAL01
_symmetry_space_group_name_H-M    'P1'
_symmetry_Int_Tables_number       1
loop_
_symmetry_equiv_pos_site_id
_symmetry_equiv_pos_as_xyz
1 x,y,z
_cell_length_a                   5.13297
_cell_length_b                   8.851114
_cell_length_c                   12.8672
_cell_angle_alpha                91.0636
_cell_angle_beta                 92.9265
_cell_angle_gamma                90.0265
loop_
_atom_site_label
_atom_site_type_symbol
_atom_site_fract_x
_atom_site_fract_y
_atom_site_fract_z
     1  F          0.23118160       0.31677100       0.33770700
     2  F          0.76881840       0.68322900       0.66229300
     3  F          0.23791180       0.20730110       0.14532700
     4  F          0.76208820       0.79269890       0.85467300
     5  O          0.62340810       0.22019120       0.51967800
     6  O          0.37659190       0.77980880       0.48032200
     7  N          0.05672000       0.27424140       0.53628900
     8  N          0.94328000       0.72575860       0.46371100
     9  H          0.20390000       0.26900000       0.50420000
    10  H          0.79610000       0.73100000       0.49580000
    11  C          0.06943000       0.33775160       0.63858110
    12  C          0.93057000       0.66224840       0.36141890
    13  C          0.90137000       0.29334170       0.71349110
    14  C          0.09863000       0.70665830       0.28650890
    15  H          0.76530000       0.22310000       0.69620000
    16  H          0.23470000       0.77690000       0.30380000
    17  C          0.93447000       0.35301160       0.81470110
    18  C          0.06553000       0.64698840       0.18529890
    19  C          0.13053000       0.45915170       0.83961120
    20  C          0.86947000       0.54084830       0.16038880
    21  H          0.15020000       0.50120000       0.90800000
    22  H          0.84980000       0.49880000       0.09200000
    23  C          0.29563000       0.50252170       0.76389120
    24  C          0.70437000       0.49747830       0.23610880
    25  H          0.42990000       0.57410000       0.78070000
    26  H          0.57010000       0.42590000       0.21930000
    27  C          0.26703000       0.44252160       0.66389120
    28  C          0.73297000       0.55747840       0.33610880
    29  H          0.38180000       0.47260000       0.61240000
    30  H          0.61820000       0.52740000       0.38760000
    31  C          0.87347000       0.15788160       0.37595110
    32  C          0.12653000       0.84211840       0.62404890
    33  C          0.05713000       0.20744160       0.30881110
    34  C          0.94287000       0.79255840       0.69118890
    35  C          0.06053000       0.15039170       0.20825110
    36  C          0.93947000       0.84960830       0.79174890
    37  C          0.88847000       0.04083170       0.17214120
    38  C          0.11153000       0.95916830       0.82785880
    39  H          0.89420000       0.00160000       0.10310000
    40  H          0.10580000      -0.00160000       0.89690000
    41  C          0.70547000      -0.01167170       0.23875120
    42  C          0.29453000       0.01167170       0.76124880
    43  H          0.58550000       0.91180000       0.21540000
    44  H          0.41450000       0.08820000       0.78460000
    45  C          0.69707000       0.04674160       0.33877120
    46  C          0.30293000       0.95325840       0.66122880
    47  H          0.56920000       0.01080000       0.38310000
    48  H          0.43080000      -0.01080000       0.61690000
    49  C          0.84067000       0.22115160       0.48365110
    50  C          0.15933000       0.77884840       0.51634890
    51  C          0.77057000       0.30086170       0.89508120
    52  C          0.22943000       0.69913830       0.10491880
    53  C          0.63927000       0.25812000       0.96069130
    54  C          0.36073000       0.74188000       0.03930870
    55  H          0.53310000       0.22360000       0.01380000
    56  H          0.46690000       0.77640000       0.98620000
