data_FITYAL
_symmetry_space_group_name_H-M    'P1'
_symmetry_Int_Tables_number       1
loop_
_symmetry_equiv_pos_site_id
_symmetry_equiv_pos_as_xyz
1 x,y,z
_cell_length_a                   4.51103
_cell_length_b                   5.08373
_cell_length_c                   12.73389
_cell_angle_alpha                93.8723
_cell_angle_beta                 92.0903
_cell_angle_gamma                90.1063
loop_
_atom_site_label
_atom_site_type_symbol
_atom_site_fract_x
_atom_site_fract_y
_atom_site_fract_z
     1  F          0.62524000       0.77153000       0.28349140
     2  F          0.39624000       0.77833000       0.08928150
     3  O          0.43965000       0.16324000       0.46597170
     4  N          0.55266000       0.60175000       0.48412000
     5  H          0.54030000       0.74990000       0.45230000
     6  C          0.68827000       0.61405000       0.58722000
     7  C          0.60258000       0.45206000       0.66423000
     8  H          0.45650000       0.31910000       0.64800000
     9  C          0.73157000       0.48496000       0.76542000
    10  C          0.94767000       0.67807000       0.78853000
    11  H          0.03680000       0.70000000       0.85730000
    12  C          0.03178000       0.83687000       0.71163000
    13  H          0.18010000       0.96780000       0.72760000
    14  C          0.90257000       0.80816000       0.61093000
    15  H          0.96010000       0.92030000       0.55840000
    16  C          0.30886000       0.41595000       0.32232000
    17  C          0.40336000       0.59866000       0.25412000
    18  C          0.28647000       0.60206000       0.15322000
    19  C          0.06527000       0.42816000       0.11542000
    20  H         -0.01670000       0.43360000       0.04580000
    21  C          0.96663000       0.24476000       0.18283000
    22  H          0.81540000       0.12230000       0.15900000
    23  C          0.08677000       0.23926000       0.28402000
    24  H          0.01650000       0.11210000       0.32860000
    25  C          0.44157000       0.38296000       0.43112000
    26  C          0.62838000       0.32407000       0.84663000
    27  C          0.53941000       0.19227000       0.91103000
    28  H          0.46750000       0.08560000       0.96320000
