data_FIVBEU
_symmetry_space_group_name_H-M    'P1'
_symmetry_Int_Tables_number       1
loop_
_symmetry_equiv_pos_site_id
_symmetry_equiv_pos_as_xyz
1 x,y,z
_cell_length_a                   5.17394
_cell_length_b                   14.19041
_cell_length_c                   16.603712
_cell_angle_alpha                90.0
_cell_angle_beta                 95.7444
_cell_angle_gamma                90.0
loop_
_atom_site_label
_atom_site_type_symbol
_atom_site_fract_x
_atom_site_fract_y
_atom_site_fract_z
     1  C          0.24513000       0.70097100       0.57332900
     2  C          0.75487000       0.20097100       0.92667100
     3  C          0.75487000       0.29902900       0.42667100
     4  C          0.24513000       0.79902900       0.07332900
     5  C          0.07253000       0.76149110       0.60656900
     6  C          0.92747000       0.26149110       0.89343100
     7  C          0.92747000       0.23850890       0.39343100
     8  C          0.07253000       0.73850890       0.10656900
     9  H          0.95200000       0.73740000       0.64090000
    10  H          0.04800000       0.23740000       0.85910000
    11  H          0.04800000       0.26260000       0.35910000
    12  H          0.95200000       0.76260000       0.14090000
    13  C          0.07693000       0.85787110       0.58920900
    14  C          0.92307000       0.35787110       0.91079100
    15  C          0.92307000       0.14212890       0.41079100
    16  C          0.07693000       0.64212890       0.08920900
    17  C          0.24743000       0.89238110       0.53582100
    18  C          0.75257000       0.39238110       0.96417900
    19  C          0.75257000       0.10761890       0.46417900
    20  C          0.24743000       0.60761890       0.03582100
    21  H          0.24830000       0.95750000       0.52270000
    22  H          0.75170000       0.45750000       0.97730000
    23  H          0.75170000       0.04250000       0.47730000
    24  H          0.24830000       0.54250000       0.02270000
    25  C          0.41483000       0.83082120       0.50237100
    26  C          0.58517000       0.33082120      -0.00237100
    27  C          0.58517000       0.16917880       0.49762900
    28  C          0.41483000       0.66917880       0.00237100
    29  H          0.52960000       0.85430000       0.46590000
    30  H          0.47040000       0.35430000       0.03410000
    31  H          0.47040000       0.14570000       0.53410000
    32  H          0.52960000       0.64570000       0.96590000
    33  C          0.41773000       0.73556110       0.52113900
    34  C          0.58227000       0.23556110       0.97886100
    35  C          0.58227000       0.26443890       0.47886100
    36  C          0.41773000       0.76443890       0.02113900
    37  H          0.53610000       0.69430000       0.49870000
    38  H          0.46390000       0.19430000       0.00130000
    39  H          0.46390000       0.30570000       0.50130000
    40  H          0.53610000       0.80570000      -0.00130000
    41  C          0.38703000       0.44778110       0.63117900
    42  C          0.61297000       0.94778110       0.86882100
    43  C          0.61297000       0.55221890       0.36882100
    44  C          0.38703000       0.05221890       0.13117900
    45  C          0.57263000       0.40197120       0.68409900
    46  C          0.42737000       0.90197120       0.81590100
    47  C          0.42737000       0.59802880       0.31590100
    48  C          0.57263000       0.09802880       0.18409900
    49  H          0.72780000       0.43400000       0.70350000
    50  H          0.27220000       0.93400000       0.79650000
    51  H          0.27220000       0.56600000       0.29650000
    52  H          0.72780000       0.06600000       0.20350000
    53  C          0.53263000       0.31055120       0.70847100
    54  C          0.46737000       0.81055120       0.79152900
    55  C          0.46737000       0.68944880       0.29152900
    56  C          0.53263000       0.18944880       0.20847100
    57  H          0.65720000       0.27970000       0.74530000
    58  H          0.34280000       0.77970000       0.75470000
    59  H          0.34280000       0.72030000       0.25470000
    60  H          0.65720000       0.22030000       0.24530000
    61  C          0.30743000       0.26466110       0.67821900
    62  C          0.69257000       0.76466110       0.82178100
    63  C          0.69257000       0.73533890       0.32178100
    64  C          0.30743000       0.23533890       0.17821900
    65  C          0.12143000       0.30773110       0.62485900
    66  C          0.87857000       0.80773110       0.87514100
    67  C          0.87857000       0.69226890       0.37514100
    68  C          0.12143000       0.19226890       0.12485900
    69  H          0.96940000       0.27460000       0.60430000
    70  H          0.03060000       0.77460000       0.89570000
    71  H          0.03060000       0.72540000       0.39570000
    72  H          0.96940000       0.22540000       0.10430000
    73  C          0.16113000       0.40034110       0.60194900
    74  C          0.83887000       0.90034110       0.89805100
    75  C          0.83887000       0.59965890       0.39805100
    76  C          0.16113000       0.09965890       0.10194900
    77  H          0.03370000       0.43140000       0.56620000
    78  H          0.96630000       0.93140000       0.93380000
    79  H          0.96630000       0.56860000       0.43380000
    80  H          0.03370000       0.06860000       0.06620000
    81  C          0.44533000       0.54604110       0.60590900
    82  C          0.55467000       0.04604110       0.89409100
    83  C          0.55467000       0.45395890       0.39409100
    84  C          0.44533000       0.95395890       0.10590900
    85  C          0.91217000       0.92212110       0.62835100
    86  C          0.08783000       0.42212110       0.87164900
    87  C          0.08783000       0.07787890       0.37164900
    88  C          0.91217000       0.57787890       0.12835100
    89  C          0.78426000       0.97589130       0.66043110
    90  C          0.21574000       0.47589130       0.83956890
    91  C          0.21574000       0.02410870       0.33956890
    92  C          0.78426000       0.52410870       0.16043110
    93  H          0.68060000       0.01950000       0.68640000
    94  H          0.31940000       0.51950000       0.81360000
    95  H          0.31940000       0.98050000       0.31360000
    96  H          0.68060000       0.48050000       0.18640000
    97  Cl         0.25395900       0.14897300       0.70750300
    98  Cl         0.74604100       0.64897300       0.79249700
    99  Cl         0.74604100       0.85102700       0.29249700
   100  Cl         0.25395900       0.35102700       0.20750300
   101  O          0.66882000       0.57124800       0.59820700
   102  O          0.33118000       0.07124800       0.90179300
   103  O          0.33118000       0.42875200       0.40179300
   104  O          0.66882000       0.92875200       0.09820700
   105  N          0.23532000       0.60400900       0.59361800
   106  N          0.76468000       0.10400900       0.90638200
   107  N          0.76468000       0.39599100       0.40638200
   108  N          0.23532000       0.89599100       0.09361800
   109  H          0.08160000       0.57940000       0.59860000
   110  H          0.91840000       0.07940000       0.90140000
   111  H          0.91840000       0.42060000       0.40140000
   112  H          0.08160000       0.92060000       0.09860000
