data_FIVBEU02
_symmetry_space_group_name_H-M    'P1'
_symmetry_Int_Tables_number       1
loop_
_symmetry_equiv_pos_site_id
_symmetry_equiv_pos_as_xyz
1 x,y,z
_cell_length_a                   8.97042
_cell_length_b                   5.765501
_cell_length_c                   47.72801
_cell_angle_alpha                90.0
_cell_angle_beta                 90.0
_cell_angle_gamma                90.0
loop_
_atom_site_label
_atom_site_type_symbol
_atom_site_fract_x
_atom_site_fract_y
_atom_site_fract_z
     1  Cl         0.77472000       0.48733190       0.49112300
     2  Cl         0.22528000       0.51266810       0.99112300
     3  Cl         0.27472000       0.51266810       0.49112300
     4  Cl         0.72528000       0.48733190       0.99112300
     5  O          0.36793000       0.80434000       0.38101700
     6  O          0.63207000       0.19566000       0.88101700
     7  O          0.86793000       0.19566000       0.38101700
     8  O          0.13207000       0.80434000       0.88101700
     9  N          0.56936000       0.03177000       0.37152120
    10  N          0.43064000       0.96823000       0.87152120
    11  N          0.06936000       0.96823000       0.37152120
    12  N          0.93064000       0.03177000       0.87152120
    13  H          0.66040000       0.06400000       0.37710000
    14  H          0.33960000       0.93600000       0.87710000
    15  H          0.16040000       0.93600000       0.37710000
    16  H          0.83960000       0.06400000       0.87710000
    17  C          0.51764000       0.15187000       0.34754900
    18  C          0.48236000       0.84813000       0.84754900
    19  C          0.01764000       0.84813000       0.34754900
    20  C          0.98236000       0.15187000       0.84754900
    21  C          0.41245000       0.05698000       0.32947100
    22  C          0.58755000       0.94302000       0.82947100
    23  C          0.91245000       0.94302000       0.32947100
    24  C          0.08755000       0.05698000       0.82947100
    25  H          0.36930000       0.90980000       0.33330000
    26  H          0.63070000       0.09020000       0.83330000
    27  H          0.86930000       0.09020000       0.33330000
    28  H          0.13070000       0.90980000       0.83330000
    29  C          0.37084000       0.18176000       0.30553900
    30  C          0.62916000       0.81824000       0.80553900
    31  C          0.87084000       0.81824000       0.30553900
    32  C          0.12916000       0.18176000       0.80553900
    33  C          0.43144000       0.40148000       0.30041900
    34  C          0.56856000       0.59852000       0.80041900
    35  C          0.93144000       0.59852000       0.30041900
    36  C          0.06856000       0.40148000       0.80041900
    37  H          0.40140000       0.48750000       0.28440000
    38  H          0.59860000       0.51250000       0.78440000
    39  H          0.90140000       0.51250000       0.28440000
    40  H          0.09860000       0.48750000       0.78440000
    41  C          0.53377000       0.49077000       0.31855190
    42  C          0.46623000       0.50923000       0.81855190
    43  C          0.03377000       0.50923000       0.31855190
    44  C          0.96623000       0.49077000       0.81855190
    45  H          0.57400000       0.64030000       0.31510000
    46  H          0.42600000       0.35970000       0.81510000
    47  H          0.07400000       0.35970000       0.31510000
    48  H          0.92600000       0.64030000       0.81510000
    49  C          0.58074000       0.36767000       0.34212800
    50  C          0.41926000       0.63233000       0.84212800
    51  C          0.08074000       0.63233000       0.34212800
    52  C          0.91926000       0.36767000       0.84212800
    53  H          0.65440000       0.43000000       0.35430000
    54  H          0.34560000       0.57000000       0.85430000
    55  H          0.15440000       0.57000000       0.35430000
    56  H          0.84560000       0.43000000       0.85430000
    57  C          0.57174000       0.78166000       0.41241800
    58  C          0.42826000       0.21834000       0.91241800
    59  C          0.07174000       0.21834000       0.41241800
    60  C          0.92826000       0.78166000       0.91241800
    61  C          0.67954000       0.90738000       0.42686900
    62  C          0.32046000       0.09262000       0.92686900
    63  C          0.17954000       0.09262000       0.42686900
    64  C          0.82046000       0.90738000       0.92686900
    65  H          0.71070000       0.05390000       0.41990000
    66  H          0.28930000       0.94610000       0.91990000
    67  H          0.21070000       0.94610000       0.41990000
    68  H          0.78930000       0.05390000       0.91990000
    69  C          0.74254000       0.81947000       0.45151800
    70  C          0.25746000       0.18053000       0.95151800
    71  C          0.24254000       0.18053000       0.45151800
    72  C          0.75746000       0.81947000       0.95151800
    73  H          0.81480000       0.90600000       0.46160000
    74  H          0.18520000       0.09400000       0.96160000
    75  H          0.31480000       0.09400000       0.46160000
    76  H          0.68520000       0.90600000       0.96160000
    77  C          0.69704000       0.60407000       0.46078800
    78  C          0.30296000       0.39593000       0.96078800
    79  C          0.19704000       0.39593000       0.46078800
    80  C          0.80296000       0.60407000       0.96078800
    81  C          0.58427000       0.47768000       0.44639150
    82  C          0.41573000       0.52232000       0.94639150
    83  C          0.08427000       0.52232000       0.44639150
    84  C          0.91573000       0.47768000       0.94639150
    85  H          0.55020000       0.33260000       0.45340000
    86  H          0.44980000       0.66740000       0.95340000
    87  H          0.05020000       0.66740000       0.45340000
    88  H          0.94980000       0.33260000       0.95340000
    89  C          0.52644000       0.56718000       0.42268100
    90  C          0.47356000       0.43282000       0.92268100
    91  C          0.02644000       0.43282000       0.42268100
    92  C          0.97356000       0.56718000       0.92268100
    93  H          0.45290000       0.48160000       0.41270000
    94  H          0.54710000       0.51840000       0.91270000
    95  H          0.95290000       0.51840000       0.41270000
    96  H          0.04710000       0.48160000       0.91270000
    97  C          0.49374000       0.87276000       0.38681800
    98  C          0.50626000       0.12724000       0.88681800
    99  C         -0.00626000       0.12724000       0.38681800
   100  C          0.00626000       0.87276000       0.88681800
   101  C          0.26934000       0.07818000       0.28575900
   102  C          0.73066000       0.92182000       0.78575900
   103  C          0.76934000       0.92182000       0.28575900
   104  C          0.23066000       0.07818000       0.78575900
   105  C          0.19179000      -0.00892000       0.27071190
   106  C          0.80821000       0.00892000       0.77071190
   107  C          0.69179000       0.00892000       0.27071190
   108  C          0.30821000      -0.00892000       0.77071190
   109  H          0.12580000       0.91700000       0.25790000
   110  H          0.87420000       0.08300000       0.75790000
   111  H          0.62580000       0.08300000       0.25790000
   112  H          0.37420000       0.91700000       0.75790000
   113  Cl         0.52682000      -0.00104830       0.50903300
   114  Cl         0.47318000       0.00104830       0.00903300
   115  Cl         0.02682000       0.00104830       0.50903300
   116  Cl         0.97318000      -0.00104830       0.00903300
   117  O          0.11403000       0.69744000       0.61914700
   118  O          0.88597000       0.30256000       0.11914700
   119  O          0.61403000       0.30256000       0.61914700
   120  O          0.38597000       0.69744000       0.11914700
   121  N          0.31436000       0.46807000       0.62856120
   122  N          0.68564000       0.53193000       0.12856120
   123  N          0.81436000       0.53193000       0.62856120
   124  N          0.18564000       0.46807000       0.12856120
   125  H          0.40550000       0.43510000       0.62300000
   126  H          0.59450000       0.56490000       0.12300000
   127  H          0.90550000       0.56490000       0.62300000
   128  H          0.09450000       0.43510000       0.12300000
   129  C          0.26224000       0.34897000       0.65261900
   130  C          0.73776000       0.65103000       0.15261900
   131  C          0.76224000       0.65103000       0.65261900
   132  C          0.23776000       0.34897000       0.15261900
   133  C          0.15655000       0.44148000       0.67071110
   134  C          0.84345000       0.55852000       0.17071110
   135  C          0.65655000       0.55852000       0.67071110
   136  C          0.34345000       0.44148000       0.17071110
   137  H          0.11280000       0.58810000       0.66690000
   138  H          0.88720000       0.41190000       0.16690000
   139  H          0.61280000       0.41190000       0.66690000
   140  H          0.38720000       0.58810000       0.16690000
   141  C          0.11474000       0.31767000       0.69459900
   142  C          0.88526000       0.68233000       0.19459900
   143  C          0.61474000       0.68233000       0.69459900
   144  C          0.38526000       0.31767000       0.19459900
   145  C          0.17524000       0.09968000       0.69995900
   146  C          0.82476000       0.90032000       0.19995900
   147  C          0.67524000       0.90032000       0.69995900
   148  C          0.32476000       0.09968000       0.19995900
   149  H          0.14350000       0.01290000       0.71580000
   150  H          0.85650000      -0.01290000       0.21580000
   151  H          0.64350000      -0.01290000       0.71580000
   152  H          0.35650000       0.01290000       0.21580000
   153  C          0.28328000       0.00947000       0.68171190
   154  C          0.71672000      -0.00947000       0.18171190
   155  C          0.78328000      -0.00947000       0.68171190
   156  C          0.21672000       0.00947000       0.18171190
   157  H          0.32740000       0.86290000       0.68550000
   158  H          0.67260000       0.13710000       0.18550000
   159  H          0.82740000       0.13710000       0.68550000
   160  H          0.17260000       0.86290000       0.18550000
   161  C          0.32534000       0.13267000       0.65839900
   162  C          0.67466000       0.86733000       0.15839900
   163  C          0.82534000       0.86733000       0.65839900
   164  C          0.17466000       0.13267000       0.15839900
   165  H          0.39810000       0.07010000       0.64610000
   166  H          0.60190000       0.92990000       0.14610000
   167  H          0.89810000       0.92990000       0.64610000
   168  H          0.10190000       0.07010000       0.14610000
   169  C          0.31724000       0.71446000       0.58754800
   170  C          0.68276000       0.28554000       0.08754800
   171  C          0.81724000       0.28554000       0.58754800
   172  C          0.18276000       0.71446000       0.08754800
   173  C          0.42494000       0.58707000       0.57315800
   174  C          0.57506000       0.41293000       0.07315800
   175  C          0.92494000       0.41293000       0.57315800
   176  C          0.07506000       0.58707000       0.07315800
   177  H          0.45510000       0.44000000       0.58010000
   178  H          0.54490000       0.56000000       0.08010000
   179  H          0.95510000       0.56000000       0.58010000
   180  H          0.04490000       0.44000000       0.08010000
   181  C          0.48864000       0.67226000       0.54878900
   182  C          0.51136000       0.32774000       0.04878900
   183  C         -0.01136000       0.32774000       0.54878900
   184  C          0.01136000       0.67226000       0.04878900
   185  H          0.56120000       0.58450000       0.53890000
   186  H          0.43880000       0.41550000       0.03890000
   187  H          0.06120000       0.41550000       0.53890000
   188  H          0.93880000       0.58450000       0.03890000
   189  C          0.44414000       0.88757000       0.53913800
   190  C          0.55586000       0.11243000       0.03913800
   191  C          0.94414000       0.11243000       0.53913800
   192  C          0.05586000       0.88757000       0.03913800
   193  C          0.34298000       0.01657000       0.55229160
   194  C          0.65702000      -0.01657000       0.05229160
   195  C          0.84298000      -0.01657000       0.55229160
   196  C          0.15702000       0.01657000       0.05229160
   197  H          0.31740000       0.16550000       0.54530000
   198  H          0.68260000       0.83450000       0.04530000
   199  H          0.81740000       0.83450000       0.54530000
   200  H          0.18260000       0.16550000       0.04530000
   201  C          0.27304000       0.92918000       0.57698100
   202  C          0.72696000       0.07082000       0.07698100
   203  C          0.77304000       0.07082000       0.57698100
   204  C          0.22696000       0.92918000       0.07698100
   205  H          0.19730000       0.01620000       0.58610000
   206  H          0.80270000      -0.01620000       0.08610000
   207  H          0.69730000      -0.01620000       0.58610000
   208  H          0.30270000       0.01620000       0.08610000
   209  C          0.23994000       0.62587000       0.61322900
   210  C          0.76006000       0.37413000       0.11322900
   211  C          0.73994000       0.37413000       0.61322900
   212  C          0.26006000       0.62587000       0.11322900
   213  C          0.01154000       0.42398000       0.71431900
   214  C         -0.01154000       0.57602000       0.21431900
   215  C          0.51154000       0.57602000       0.71431900
   216  C          0.48846000       0.42398000       0.21431900
   217  C          0.92692000       0.50986000       0.73062140
   218  C          0.07308000       0.49014000       0.23062140
   219  C          0.42692000       0.49014000       0.73062140
   220  C          0.57308000       0.50986000       0.23062140
   221  H          0.85980000       0.57820000       0.74360000
   222  H          0.14020000       0.42180000       0.24360000
   223  H          0.35980000       0.42180000       0.74360000
   224  H          0.64020000       0.57820000       0.24360000
