data_FIVBEU01
_symmetry_space_group_name_H-M    'P1'
_symmetry_Int_Tables_number       1
loop_
_symmetry_equiv_pos_site_id
_symmetry_equiv_pos_as_xyz
1 x,y,z
_cell_length_a                   6.33606
_cell_length_b                   7.41938
_cell_length_c                   26.3493
_cell_angle_alpha                88.3043
_cell_angle_beta                 86.2193
_cell_angle_gamma                86.3113
loop_
_atom_site_label
_atom_site_type_symbol
_atom_site_fract_x
_atom_site_fract_y
_atom_site_fract_z
     1  C          0.36303000       0.43232000       0.68640700
     2  C          0.63697000       0.56768000       0.31359300
     3  C          0.49243000       0.51862000       0.65032700
     4  C          0.50757000       0.48138000       0.34967300
     5  H          0.62810000       0.55090000       0.65880000
     6  H          0.37190000       0.44910000       0.34120000
     7  C          0.42653000       0.55863000       0.60190700
     8  C          0.57347000       0.44137000       0.39809300
     9  C          0.22544000       0.51503000       0.59007800
    10  C          0.77456000       0.48497000       0.40992200
    11  H          0.17810000       0.54150000       0.55700000
    12  H          0.82190000       0.45850000       0.44300000
    13  C          0.09683000       0.43413000       0.62626900
    14  C          0.90317000       0.56587000       0.37373100
    15  H          0.95870000       0.40670000       0.61810000
    16  H          0.04130000       0.59330000       0.38190000
    17  C          0.16143000       0.39083000       0.67437800
    18  C          0.83857000       0.60917000       0.32562200
    19  H          0.06960000       0.33360000       0.69890000
    20  H          0.93040000       0.66640000       0.30110000
    21  C          0.52703000       0.22802000       0.81148700
    22  C          0.47297000       0.77198000       0.18851300
    23  C          0.44043000       0.13952000       0.85444800
    24  C          0.55957000       0.86048000       0.14555200
    25  H          0.30420000       0.09330000       0.85380000
    26  H          0.69580000       0.90670000       0.14620000
    27  C          0.54954000       0.11813000       0.89776800
    28  C          0.45046000       0.88187000       0.10223200
    29  H          0.48850000       0.05910000       0.92710000
    30  H          0.51150000       0.94090000       0.07290000
    31  C          0.74923000       0.18333000       0.89826800
    32  C          0.25077000       0.81667000       0.10173200
    33  C          0.83973000       0.26793000       0.85592800
    34  C          0.16027000       0.73207000       0.14407200
    35  H          0.97760000       0.31070000       0.85640000
    36  H          0.02240000       0.68930000       0.14360000
    37  C          0.72913000       0.28993000       0.81287800
    38  C          0.27087000       0.71007000       0.18712200
    39  H          0.79150000       0.34840000       0.78360000
    40  H          0.20850000       0.65160000       0.21640000
    41  C          0.39933000       0.25152000       0.76620700
    42  C          0.60067000       0.74848000       0.23379300
    43  C          0.56634000       0.64233000       0.56370800
    44  C          0.43366000       0.35767000       0.43629200
    45  C          0.67625000       0.70674000       0.53296100
    46  C          0.32375000       0.29326000       0.46703900
    47  H          0.76730000       0.76000000       0.50750000
    48  H          0.23270000       0.24000000       0.49250000
    49  Cl         0.88934110       0.15676900       0.95244200
    50  Cl         0.11065890       0.84323100       0.04755800
    51  N          0.44582000       0.39112000       0.73411600
    52  N          0.55418000       0.60888000       0.26588400
    53  H          0.53800000       0.46430000       0.74410000
    54  H          0.46200000       0.53570000       0.25590000
    55  O          0.26042000       0.14894190       0.75859500
    56  O          0.73958000       0.85105810       0.24140500
    57  C          0.05213000       0.75662000       0.81858700
    58  C          0.94787000       0.24338000       0.18141300
    59  C          0.89233000       0.75062000       0.85641700
    60  C          0.10767000       0.24938000       0.14358300
    61  H          0.75200000       0.79280000       0.84960000
    62  H          0.24800000       0.20720000       0.15040000
    63  C          0.93593000       0.68272000       0.90459700
    64  C          0.06407000       0.31728000       0.09540300
    65  C          0.14223000       0.62033000       0.91400800
    66  C          0.85777000       0.37967000       0.08599200
    67  H          0.17360000       0.57320000       0.94680000
    68  H          0.82640000       0.42680000       0.05320000
    69  C          0.30043000       0.62713000       0.87571800
    70  C          0.69957000       0.37287000       0.12428200
    71  H          0.44070000       0.58380000       0.88220000
    72  H          0.55930000       0.41620000       0.11780000
    73  C          0.25743000       0.69593000       0.82824800
    74  C          0.74257000       0.30407000       0.17175200
    75  H          0.36790000       0.70180000       0.80220000
    76  H          0.63210000       0.29820000       0.19780000
    77  C          0.84693000       0.88932000       0.69095700
    78  C          0.15307000       0.11068000       0.30904300
    79  C          0.65293000       0.96203000       0.67611800
    80  C          0.34707000       0.03797000       0.32388200
    81  H          0.52950000       0.95130000       0.69820000
    82  H          0.47050000       0.04870000       0.30180000
    83  C          0.63754000       0.04953000       0.62962800
    84  C          0.36246000       0.95047000       0.37037200
    85  H          0.50520000       0.10280000       0.62000000
    86  H          0.49480000       0.89720000       0.38000000
    87  C          0.81504000       0.05893000       0.59732800
    88  C          0.18496000       0.94107000       0.40267200
    89  C          0.00883000      -0.01527000       0.61059800
    90  C         -0.00883000       0.01527000       0.38940200
    91  H          0.13000000      -0.00970000       0.58750000
    92  H          0.87000000       0.00970000       0.41250000
    93  C          0.02453000       0.90203000       0.65790700
    94  C          0.97547000       0.09797000       0.34209300
    95  H          0.15830000       0.85340000       0.66780000
    96  H          0.84170000       0.14660000       0.33220000
    97  C          0.85553000       0.79352000       0.74130700
    98  C          0.14447000       0.20648000       0.25869300
    99  C          0.77053000       0.68003000       0.94490800
   100  C          0.22947000       0.31997000       0.05509200
   101  C          0.63844000       0.68103000       0.97701900
   102  C          0.36156000       0.31897000       0.02298100
   103  H          0.52930000       0.68190000       0.00350000
   104  H          0.47070000       0.31810000      -0.00350000
   105  Cl         0.79311120       0.16698900       0.53842200
   106  Cl         0.20688880       0.83301100       0.46157800
   107  N          0.01392000       0.83332000       0.76958600
   108  N         -0.01392000       0.16668000       0.23041400
   109  H          0.10120000       0.91320000       0.75680000
   110  H          0.89880000       0.08680000       0.24320000
   111  O          0.72352000       0.68531190       0.75532500
   112  O          0.27648000       0.31468810       0.24467500
