data_FOMSUY
_symmetry_space_group_name_H-M    'P1'
_symmetry_Int_Tables_number       1
loop_
_symmetry_equiv_pos_site_id
_symmetry_equiv_pos_as_xyz
1 x,y,z
_cell_length_a                   6.84157
_cell_length_b                   10.893112
_cell_length_c                   20.1632
_cell_angle_alpha                74.9659
_cell_angle_beta                 83.8159
_cell_angle_gamma                72.1831
loop_
_atom_site_label
_atom_site_type_symbol
_atom_site_fract_x
_atom_site_fract_y
_atom_site_fract_z
     1  O          0.40083000       0.02152000       0.88646900
     2  O          0.59917000       0.97848000       0.11353100
     3  O          0.30093000       0.84502000       0.93647880
     4  O          0.69907000       0.15498000       0.06352120
     5  N          0.56793000       0.62332000       0.01294120
     6  N          0.43207000       0.37668000       0.98705880
     7  H          0.45242200       0.64307700      -0.00632400
     8  H          0.54757800       0.35692300       0.00632400
     9  N          0.66104000       0.50332000       0.05329120
    10  N          0.33896000       0.49668000       0.94670880
    11  N          0.84524000       0.64782000       0.04421110
    12  N          0.15476000       0.35218000       0.95578890
    13  C          0.54225000       0.09323000       0.87440850
    14  C          0.45775000       0.90677000       0.12559150
    15  C          0.48896000       0.21663000       0.82988820
    16  C          0.51104000       0.78337000       0.17011180
    17  H          0.36205500       0.24993100       0.80920300
    18  H          0.63794500       0.75006900       0.19079700
    19  C          0.62556000       0.28933000       0.81660820
    20  C          0.37444000       0.71067000       0.18339180
    21  H          0.59160100       0.37331100       0.78692100
    22  H          0.40839900       0.62668900       0.21307900
    23  C          0.81496000       0.23843000       0.84727810
    24  C          0.18504000       0.76157000       0.15272190
    25  H          0.90886300       0.28735800       0.83708500
    26  H          0.09113700       0.71264200       0.16291500
    27  C          0.86435000       0.11643000       0.89242840
    28  C          0.13565000       0.88357000       0.10757160
    29  H         -0.01021700       0.08468200       0.91389400
    30  H          0.01021700       0.91531800       0.08610600
    31  C          0.72925000       0.03943000       0.90664850
    32  C          0.27075000       0.96057000       0.09335150
    33  C          0.77064000       0.91073000       0.95194860
    34  C          0.22936000       0.08927000       0.04805140
    35  H          0.89553600       0.87361500       0.97377200
    36  H          0.10446400       0.12638500       0.02622800
    37  C          0.63234000       0.84163000       0.96375860
    38  C          0.36766000       0.15837000       0.03624140
    39  C          0.43635000       0.89753000       0.93019850
    40  C          0.56365000       0.10247000       0.06980150
    41  C          0.68064000       0.70743000       0.00711140
    42  C          0.31936000       0.29257000      -0.00711140
    43  C          0.82774000       0.52323000       0.07162140
    44  C          0.17226000       0.47677000       0.92837860
    45  C          0.97894000       0.41793000       0.11695140
    46  C          0.02106000       0.58207000       0.88304860
    47  C          0.16025000       0.43723000       0.12948150
    48  C          0.83975000       0.56277000       0.87051850
    49  H          0.18770600       0.51701900       0.10819400
    50  H          0.81229400       0.48298100       0.89180600
    51  C          0.30045000       0.34054000       0.17286170
    52  C          0.69955000       0.65946000       0.82713830
    53  H          0.42169700       0.35506500       0.18107900
    54  H          0.57830300       0.64493500       0.81892100
    55  C          0.26166000       0.22244000       0.20406170
    56  C          0.73834000       0.77756000       0.79593830
    57  H          0.35566000       0.15661800       0.23380300
    58  H          0.64434000       0.84338200       0.76619700
    59  C          0.08156000       0.20173000       0.19100170
    60  C          0.91844000       0.79827000       0.80899830
    61  H          0.05536900       0.12125500       0.21195000
    62  H          0.94463100       0.87874500       0.78805000
    63  C          0.94125000       0.29743000       0.14779150
    64  C          0.05875000       0.70257000       0.85220850
    65  H          0.82109800       0.28203600       0.13909600
    66  H          0.17890200       0.71796400       0.86090400
    67  O          0.14263000       0.07088190       0.38985100
    68  O          0.85737000       0.92911810       0.61014900
    69  O          0.22243000       0.20952000       0.43673120
    70  O          0.77757000       0.79048000       0.56326880
    71  N          0.93174000       0.36412000       0.51047120
    72  N          0.06826000       0.63588000       0.48952880
    73  H          0.05036800       0.36430300       0.49149600
    74  H          0.94963200       0.63569700       0.50850400
    75  N          0.82744000       0.44452000       0.55156130
    76  N          0.17256000       0.55548000       0.44843870
    77  N          0.65063000       0.30762000       0.54006110
    78  N          0.34937000       0.69238000       0.45993890
    79  C          0.00305000       0.01373000       0.37562150
    80  C         -0.00305000       0.98627000       0.62437850
    81  C          0.07135000       0.92637000       0.33325160
    82  C          0.92865000       0.07363000       0.66674840
    83  H          0.20684100       0.90580800       0.31685700
    84  H          0.79315900       0.09419200       0.68314300
    85  C          0.93526000       0.87117000       0.31596180
    86  C          0.06474000       0.12883000       0.68403820
    87  H          0.97883400       0.81192500       0.28777700
    88  H          0.02116600       0.18807500       0.71222300
    89  C          0.73266000       0.90286000       0.34012000
    90  C          0.26734000       0.09714000       0.65988000
    91  H          0.63963200       0.86761000       0.32675100
    92  H          0.36036800       0.13239000       0.67324900
    93  C          0.67025000       0.98587000       0.38361170
    94  C          0.32975000       0.01413000       0.61638830
    95  H          0.53582900       0.00396300       0.40118800
    96  H          0.46417100      -0.00396300       0.59881200
    97  C          0.80525000       0.04393000       0.40202150
    98  C          0.19475000       0.95607000       0.59797850
    99  C          0.75064000       0.13323000       0.44635140
   100  C          0.24936000       0.86677000       0.55364860
   101  H          0.61852600       0.15249000       0.46585000
   102  H          0.38147400       0.84751000       0.53415000
   103  C          0.88434000       0.18993000       0.46063140
   104  C          0.11566000       0.81007000       0.53936860
   105  C          0.09045000       0.16093000       0.43024150
   106  C          0.90955000       0.83907000       0.56975850
   107  C          0.82424000       0.28403000       0.50338140
   108  C          0.17576000       0.71597000       0.49661860
   109  C          0.65924000       0.40403000       0.56920140
   110  C          0.34076000       0.59597000       0.43079860
   111  C          0.49654000       0.46353000       0.61495140
   112  C          0.50346000       0.53647000       0.38504860
   113  C          0.31885000       0.42603000       0.62550150
   114  C          0.68115000       0.57397000       0.37449850
   115  H          0.30339400       0.36443000       0.60352200
   116  H          0.69660600       0.63557000       0.39647800
   117  C          0.16305000       0.47934000       0.66854170
   118  C          0.83695000       0.52066000       0.33145830
   119  H          0.04241000       0.45450300       0.67485000
   120  H          0.95759000       0.54549700       0.32515000
   121  C          0.18585000       0.56853000       0.70191160
   122  C          0.81415000       0.43147000       0.29808840
   123  H          0.08200300       0.60302400       0.73155700
   124  H          0.91799700       0.39697600       0.26844300
   125  C          0.36135000       0.60643000       0.69148160
   126  C          0.63865000       0.39357000       0.30851840
   127  H          0.37621700       0.66715300       0.71410100
   128  H          0.62378300       0.33284700       0.28589900
   129  C          0.51665000       0.55583000       0.64788150
   130  C          0.48335000       0.44417000       0.35211850
   131  H          0.63464600       0.58348600       0.64057000
   132  H          0.36535400       0.41651400       0.35943000
