data_FOMSUY01
_symmetry_space_group_name_H-M    'P1'
_symmetry_Int_Tables_number       1
loop_
_symmetry_equiv_pos_site_id
_symmetry_equiv_pos_as_xyz
1 x,y,z
_cell_length_a                   6.835511
_cell_length_b                   19.5123
_cell_length_c                   10.8812
_cell_angle_alpha                90.0
_cell_angle_beta                 107.81119
_cell_angle_gamma                90.0
loop_
_atom_site_label
_atom_site_type_symbol
_atom_site_fract_x
_atom_site_fract_y
_atom_site_fract_z
     1  O          0.84531000       0.61384000       0.08617000
     2  O          0.15469000       0.11384000       0.91383000
     3  O          0.93661100       0.56255000       0.93257000
     4  O          0.06338900       0.06255000       0.06743000
     5  N          0.65891300       0.48704000       0.74578000
     6  N          0.34108700       0.98704000       0.25422000
     7  H          0.77581300       0.50619300       0.75474700
     8  H          0.22418700       0.00619300       0.24525300
     9  N          0.55821300       0.44615000       0.64458000
    10  N          0.44178700       0.94615000       0.35542000
    11  N          0.38061200       0.45624000       0.78937000
    12  N          0.61938800       0.95624000       0.21063000
    13  C          0.70601700       0.62576000       0.15241000
    14  C          0.29398300       0.12576000       0.84759000
    15  C          0.75820000       0.67187000       0.25171200
    16  C          0.24180000       0.17187000       0.74828800
    17  H          0.88635400       0.69298300       0.27392100
    18  H          0.11364600       0.19298300       0.72607900
    19  C          0.62520000       0.68698000       0.31841300
    20  C          0.37480000       0.18698000       0.68158700
    21  H          0.66109900       0.71837800       0.38566500
    22  H          0.33890100       0.21837800       0.61433500
    23  C          0.42920000       0.65448000       0.28511300
    24  C          0.57080000       0.15448000       0.71488700
    25  H          0.33757500       0.66318600       0.33138900
    26  H          0.66242500       0.16318600       0.66861100
    27  C          0.37871800       0.60996000       0.18321000
    28  C          0.62128200       0.10996000       0.81679000
    29  H          0.25018200       0.58904800       0.15796700
    30  H          0.74981800       0.08904800       0.84203300
    31  C          0.51521500       0.59596000       0.11859000
    32  C          0.48478500       0.09596000       0.88141000
    33  C          0.47051500       0.54865000       0.00729000
    34  C          0.52948500       0.04865000      -0.00729000
    35  H          0.34500300       0.52581900       0.98216100
    36  H          0.65499700       0.02581900       0.01783900
    37  C          0.60211400       0.53725000       0.94129000
    38  C          0.39788600       0.03725000       0.05871000
    39  C          0.80561500       0.56955000       0.98401000
    40  C          0.19438500       0.06955000       0.01599000
    41  C          0.54961400       0.49345000       0.83008000
    42  C          0.45038600      -0.00655000       0.16992000
    43  C          0.39141500       0.42865000       0.67819000
    44  C          0.60858500       0.92865000       0.32181000
    45  C          0.23281500       0.38365000       0.59399000
    46  C          0.76718500       0.88365000       0.40601000
    47  C          0.05551700       0.37297000       0.62741000
    48  C          0.94448300       0.87297000       0.37259000
    49  H          0.03727800       0.39485600       0.69899300
    50  H          0.96272200       0.89485600       0.30100700
    51  C          0.90578100       0.32946000       0.55371400
    52  C          0.09421900       0.82946000       0.44628600
    53  H          0.78841300       0.32107100       0.57752800
    54  H          0.21158700       0.82107100       0.42247200
    55  C          0.92880000       0.29817000       0.44431300
    56  C          0.07120000       0.79817000       0.55568700
    57  H          0.82482100       0.27080500       0.39197900
    58  H          0.17517900       0.77080500       0.60802100
    59  C          0.10661900       0.30826000       0.41521000
    60  C          0.89338100       0.80826000       0.58479000
    61  H          0.12700100       0.28571300       0.34470600
    62  H          0.87299900       0.78571300       0.65529400
    63  C          0.25581800       0.35096000       0.48821000
    64  C          0.74418200       0.85096000       0.51179000
    65  H          0.37485700       0.35780000       0.46543200
    66  H          0.62514300       0.85780000       0.53456800
    67  O          0.60811000       0.38914000       0.13906000
    68  O          0.39189000       0.88914000       0.86094000
    69  O          0.51561100       0.43885000       0.29787000
    70  O          0.48438900       0.93885000       0.70213000
    71  N          0.79471400       0.51075000       0.48358000
    72  N          0.20528600       0.01075000       0.51642000
    73  H          0.67783700       0.49122000       0.47284800
    74  H          0.32216300       0.99122000       0.52715200
    75  N          0.89231300       0.55215000       0.58599000
    76  N          0.10768700       0.05215000       0.41401000
    77  N          0.07511300       0.54255000       0.44838000
    78  N          0.92488700       0.04255000       0.55162000
    79  C          0.75091600       0.37516000       0.07499000
    80  C          0.24908400       0.87516000       0.92501000
    81  C          0.68861900       0.33256000       0.96939000
    82  C          0.31138100       0.83256000       0.03061000
    83  H          0.55596900       0.31473700       0.94168800
    84  H          0.44403100       0.81473700       0.05831200
    85  C          0.82620000       0.31736000       0.90748800
    86  C          0.17380000       0.81736000       0.09251200
    87  H          0.78650300       0.28920000       0.83508600
    88  H          0.21349700       0.78920000       0.16491400
    89  C          0.02720000       0.34268000       0.94928800
    90  C          0.97280000       0.84268000       0.05071200
    91  H          0.12131100       0.32997200       0.90719800
    92  H          0.87868900       0.82997200       0.09280200
    93  C          0.08391700       0.38627000       0.05271100
    94  C          0.91608300       0.88627000       0.94728900
    95  H          0.21605100       0.40434100       0.07976200
    96  H          0.78394900       0.90434100       0.92023800
    97  C          0.94431400       0.40355000       0.11729000
    98  C          0.05568600       0.90355000       0.88271000
    99  C         -0.01028600       0.44826000       0.22789000
   100  C          0.01028600       0.94826000       0.77211000
   101  H          0.12015300       0.46747100       0.25781000
   102  H          0.87984700       0.96747100       0.74219000
   103  C          0.85221500       0.46345000       0.28978000
   104  C          0.14778500       0.96345000       0.71022000
   105  C          0.65311500       0.43116000       0.24711000
   106  C          0.34688500       0.93116000       0.75289000
   107  C          0.90551400       0.50505000       0.40389000
   108  C          0.09448600       0.00505000       0.59611000
   109  C          0.06081600       0.56915000       0.55781000
   110  C          0.93918400       0.06915000       0.44219000
   111  C          0.21811500       0.61495000       0.64181000
   112  C          0.78188500       0.11495000       0.35819000
   113  C          0.39791600       0.62675000       0.61451100
   114  C          0.60208400       0.12675000       0.38548900
   115  H          0.42365600       0.60551000       0.54453000
   116  H          0.57634400       0.10551000       0.45547000
   117  C          0.54220000       0.67127000       0.69381400
   118  C          0.45780000       0.17127000       0.30618600
   119  H          0.66230500       0.67977800       0.67399600
   120  H          0.33769500       0.17977800       0.32600400
   121  C          0.51520000       0.70148000       0.79461400
   122  C          0.48480000       0.20148000       0.20538600
   123  H          0.61562800       0.73000400       0.84585600
   124  H          0.38437200       0.23000400       0.15414400
   125  C          0.33220000       0.69017000       0.82451200
   126  C          0.66780000       0.19017000       0.17548800
   127  H          0.31038700       0.71152500       0.89547900
   128  H          0.68961300       0.21152500       0.10452100
   129  C          0.18461800       0.64666000       0.74701000
   130  C          0.81538200       0.14666000       0.25299000
   131  H          0.06279200       0.63879500       0.76601200
   132  H          0.93720800       0.13879500       0.23398800
