data_FOMSUY02
_symmetry_space_group_name_H-M    'P1'
_symmetry_Int_Tables_number       1
loop_
_symmetry_equiv_pos_site_id
_symmetry_equiv_pos_as_xyz
1 x,y,z
_cell_length_a                   13.03698
_cell_length_b                   13.08047
_cell_length_c                   16.22238
_cell_angle_alpha                90.0
_cell_angle_beta                 90.0
_cell_angle_gamma                90.0
loop_
_atom_site_label
_atom_site_type_symbol
_atom_site_fract_x
_atom_site_fract_y
_atom_site_fract_z
     1  O          0.55275120       0.82349120       0.30139100
     2  O          0.94724880       0.17650880       0.80139100
     3  O          0.44724880       0.32349120       0.19860900
     4  O          0.05275120       0.67650880       0.69860900
     5  O          0.44724880       0.17650880       0.69860900
     6  O          0.05275120       0.82349120       0.19860900
     7  O          0.55275120       0.67650880       0.80139100
     8  O          0.94724880       0.32349120       0.30139100
     9  O          0.47671130       0.68927140       0.35456110
    10  O          0.02328870       0.31072860       0.85456110
    11  O          0.52328870       0.18927140       0.14543890
    12  O          0.97671130       0.81072860       0.64543890
    13  O          0.52328870       0.31072860       0.64543890
    14  O          0.97671130       0.68927140       0.14543890
    15  O          0.47671130       0.81072860       0.85456110
    16  O          0.02328870       0.18927140       0.35456110
    17  N          0.58664150       0.54585130       0.43886110
    18  N          0.91335850       0.45414870       0.93886110
    19  N          0.41335850       0.04585130       0.06113890
    20  N          0.08664150       0.95414870       0.56113890
    21  N          0.41335850       0.45414870       0.56113890
    22  N          0.08664150       0.54585130       0.06113890
    23  N          0.58664150       0.95414870       0.93886110
    24  N          0.91335850       0.04585130       0.43886110
    25  H          0.52338900       0.56295700       0.43283400
    26  H          0.97661100       0.43704300       0.93283400
    27  H          0.47661100       0.06295700       0.06716600
    28  H          0.02338900       0.93704300       0.56716600
    29  H          0.47661100       0.43704300       0.56716600
    30  H          0.02338900       0.56295700       0.06716600
    31  H          0.52338900       0.93704300       0.93283400
    32  H          0.97661100       0.06295700       0.43283400
    33  N          0.61898150       0.46386140       0.48195120
    34  N          0.88101850       0.53613860       0.98195120
    35  N          0.38101850       0.96386140       0.01804880
    36  N          0.11898150       0.03613860       0.51804880
    37  N          0.38101850       0.53613860       0.51804880
    38  N          0.11898150       0.46386140       0.01804880
    39  N          0.61898150       0.03613860       0.98195120
    40  N          0.88101850       0.96386140       0.48195120
    41  N          0.75265130       0.54970130       0.42686100
    42  N          0.74734870       0.45029870       0.92686100
    43  N          0.24734870       0.04970130       0.07313900
    44  N          0.25265130       0.95029870       0.57313900
    45  N          0.24734870       0.45029870       0.57313900
    46  N          0.25265130       0.54970130       0.07313900
    47  N          0.75265130       0.95029870       0.92686100
    48  N          0.74734870       0.04970130       0.42686100
    49  C          0.63897170       0.87601170       0.27645130
    50  C          0.86102830       0.12398830       0.77645130
    51  C          0.36102830       0.37601170       0.22354870
    52  C          0.13897170       0.62398830       0.72354870
    53  C          0.36102830       0.12398830       0.72354870
    54  C          0.13897170       0.87601170       0.22354870
    55  C          0.63897170       0.62398830       0.77645130
    56  C          0.86102830       0.37601170       0.27645130
    57  C          0.62402000       0.96771170       0.23729140
    58  C          0.87598000       0.03228830       0.73729140
    59  C          0.37598000       0.46771170       0.26270860
    60  C          0.12402000       0.53228830       0.76270860
    61  C          0.37598000       0.03228830       0.76270860
    62  C          0.12402000       0.96771170       0.26270860
    63  C          0.62402000       0.53228830       0.73729140
    64  C          0.87598000       0.46771170       0.23729140
    65  H          0.55833300      -0.00595400       0.23032100
    66  H          0.94166700       0.00595400       0.73032100
    67  H          0.44166700       0.49404600       0.26967900
    68  H          0.05833300       0.50595400       0.76967900
    69  H          0.44166700       0.00595400       0.76967900
    70  H          0.05833300      -0.00595400       0.26967900
    71  H          0.55833300       0.50595400       0.73032100
    72  H          0.94166700       0.49404600       0.23032100
    73  C          0.70832000       0.01985190       0.20855140
    74  C          0.79168000       0.98014810       0.70855140
    75  C          0.29168000       0.51985190       0.29144860
    76  C          0.20832000       0.48014810       0.79144860
    77  C          0.29168000       0.98014810       0.79144860
    78  C          0.20832000       0.01985190       0.29144860
    79  C          0.70832000       0.48014810       0.70855140
    80  C          0.79168000       0.51985190       0.20855140
    81  H          0.69964600       0.08199500       0.18158900
    82  H          0.80035400       0.91800500       0.68158900
    83  H          0.30035400       0.58199500       0.31841100
    84  H          0.19964600       0.41800500       0.81841100
    85  H          0.30035400       0.91800500       0.81841100
    86  H          0.19964600       0.08199500       0.31841100
    87  H          0.69964600       0.41800500       0.68158900
    88  H          0.80035400       0.58199500       0.18158900
    89  C          0.80572000       0.98078190       0.21935150
    90  C          0.69428000       0.01921810       0.71935150
    91  C          0.19428000       0.48078190       0.28064850
    92  C          0.30572000       0.51921810       0.78064850
    93  C          0.19428000       0.01921810       0.78064850
    94  C          0.30572000       0.98078190       0.28064850
    95  C          0.80572000       0.51921810       0.71935150
    96  C          0.69428000       0.48078190       0.21935150
    97  H          0.86202500       0.01641700       0.19901200
    98  H          0.63797500       0.98358300       0.69901200
    99  H          0.13797500       0.51641700       0.30098800
   100  H          0.36202500       0.48358300       0.80098800
   101  H          0.13797500       0.98358300       0.80098800
   102  H          0.36202500       0.01641700       0.30098800
   103  H          0.86202500       0.48358300       0.69901200
   104  H          0.63797500       0.51641700       0.19901200
   105  C          0.82020180       0.89003170       0.25975140
   106  C          0.67979820       0.10996830       0.75975140
   107  C          0.17979820       0.39003170       0.24024860
   108  C          0.32020180       0.60996830       0.74024860
   109  C          0.17979820       0.10996830       0.74024860
   110  C          0.32020180       0.89003170       0.24024860
   111  C          0.82020180       0.60996830       0.75975140
   112  C          0.67979820       0.39003170       0.25975140
   113  H          0.88621500       0.86480500       0.26737800
   114  H          0.61378500       0.13519500       0.76737800
   115  H          0.11378500       0.36480500       0.23262200
   116  H          0.38621500       0.63519500       0.73262200
   117  H          0.11378500       0.13519500       0.73262200
   118  H          0.38621500       0.86480500       0.23262200
   119  H          0.88621500       0.63519500       0.76737800
   120  H          0.61378500       0.36480500       0.26737800
   121  C          0.73571170       0.83501170       0.28965120
   122  C          0.76428830       0.16498830       0.78965120
   123  C          0.26428830       0.33501170       0.21034880
   124  C          0.23571170       0.66498830       0.71034880
   125  C          0.26428830       0.16498830       0.71034880
   126  C          0.23571170       0.83501170       0.21034880
   127  C          0.73571170       0.66498830       0.78965120
   128  C          0.76428830       0.33501170       0.28965120
   129  C          0.74293170       0.74110170       0.33302120
   130  C          0.75706830       0.25889830       0.83302120
   131  C          0.25706830       0.24110170       0.16697880
   132  C          0.24293170       0.75889830       0.66697880
   133  C          0.25706830       0.25889830       0.66697880
   134  C          0.24293170       0.74110170       0.16697880
   135  C          0.74293170       0.75889830       0.83302120
   136  C          0.75706830       0.24110170       0.33302120
   137  H          0.80736600       0.71362900       0.34369800
   138  H          0.69263400       0.28637100       0.84369800
   139  H          0.19263400       0.21362900       0.15630200
   140  H          0.30736600       0.78637100       0.65630200
   141  H          0.19263400       0.28637100       0.65630200
   142  H          0.30736600       0.71362900       0.15630200
   143  H          0.80736600       0.78637100       0.84369800
   144  H          0.69263400       0.21362900       0.34369800
   145  C          0.65868170       0.69054170       0.35921120
   146  C          0.84131830       0.30945830       0.85921120
   147  C          0.34131830       0.19054170       0.14078880
   148  C          0.15868170       0.80945830       0.64078880
   149  C          0.34131830       0.30945830       0.64078880
   150  C          0.15868170       0.69054170       0.14078880
   151  C          0.65868170       0.80945830       0.85921120
   152  C          0.84131830       0.19054170       0.35921120
   153  C          0.55756170       0.73097180       0.33958140
   154  C          0.94243830       0.26902820       0.83958140
   155  C          0.44243830       0.23097180       0.16041860
   156  C          0.05756170       0.76902820       0.66041860
   157  C          0.44243830       0.26902820       0.66041860
   158  C          0.05756170       0.73097180       0.16041860
   159  C          0.55756170       0.76902820       0.83958140
   160  C          0.94243830       0.23097180       0.33958140
   161  C          0.66619160       0.59730160       0.40658130
   162  C          0.83380840       0.40269840       0.90658130
   163  C          0.33380840       0.09730160       0.09341870
   164  C          0.16619160       0.90269840       0.59341870
   165  C          0.33380840       0.40269840       0.59341870
   166  C          0.16619160       0.59730160       0.09341870
   167  C          0.66619160       0.90269840       0.90658130
   168  C          0.83380840       0.09730160       0.40658130
   169  C          0.71992180       0.46861160       0.47263120
   170  C          0.78007820       0.53138840       0.97263120
   171  C          0.28007820       0.96861160       0.02736880
   172  C          0.21992180       0.03138840       0.52736880
   173  C          0.28007820       0.53138840       0.52736880
   174  C          0.21992180       0.46861160       0.02736880
   175  C          0.71992180       0.03138840       0.97263120
   176  C          0.78007820       0.96861160       0.47263120
   177  C          0.79027180       0.39262170       0.50711130
   178  C          0.70972820       0.60737830       0.00711130
   179  C          0.20972820       0.89262170      -0.00711130
   180  C          0.29027180       0.10737830       0.49288870
   181  C          0.20972820       0.60737830       0.49288870
   182  C          0.29027180       0.39262170      -0.00711130
   183  C          0.79027180       0.10737830       0.00711130
   184  C          0.70972820       0.89262170       0.50711130
   185  C          0.89462000       0.40662190       0.50197180
   186  C          0.60538000       0.59337810       0.00197180
   187  C          0.10538000       0.90662190      -0.00197180
   188  C          0.39462000       0.09337810       0.49802820
   189  C          0.10538000       0.59337810       0.49802820
   190  C          0.39462000       0.40662190      -0.00197180
   191  C          0.89462000       0.09337810       0.00197180
   192  C          0.60538000       0.90662190       0.50197180
   193  H          0.92017700       0.46470800       0.47608500
   194  H          0.57982300       0.53529200       0.97608500
   195  H          0.07982300       0.96470800       0.02391500
   196  H          0.42017700       0.03529200       0.52391500
   197  H          0.07982300       0.53529200       0.52391500
   198  H          0.42017700       0.46470800       0.02391500
   199  H          0.92017700       0.03529200       0.97608500
   200  H          0.57982300       0.96470800       0.47608500
   201  C          0.96202000       0.33612000       0.53452000
   202  C          0.53798000       0.66388000       0.03452000
   203  C          0.03798000       0.83612000       0.96548000
   204  C          0.46202000       0.16388000       0.46548000
   205  C          0.03798000       0.66388000       0.46548000
   206  C          0.46202000       0.33612000       0.96548000
   207  C          0.96202000       0.16388000       0.03452000
   208  C          0.53798000       0.83612000       0.53452000
   209  H          0.03235200       0.34628800       0.53010600
   210  H          0.46764800       0.65371200       0.03010600
   211  H          0.96764800       0.84628800       0.96989400
   212  H          0.53235200       0.15371200       0.46989400
   213  H          0.96764800       0.65371200       0.46989400
   214  H          0.53235200       0.34628800       0.96989400
   215  H          0.03235200       0.15371200       0.03010600
   216  H          0.46764800       0.84628800       0.53010600
   217  C          0.92443000       0.25042000       0.57352170
   218  C          0.57557000       0.74958000       0.07352170
   219  C          0.07557000       0.75042000       0.92647830
   220  C          0.42443000       0.24958000       0.42647830
   221  C          0.07557000       0.74958000       0.42647830
   222  C          0.42443000       0.25042000       0.92647830
   223  C          0.92443000       0.24958000       0.07352170
   224  C          0.57557000       0.75042000       0.57352170
   225  H          0.96947200       0.20317500       0.59650200
   226  H          0.53052800       0.79682500       0.09650200
   227  H          0.03052800       0.70317500       0.90349800
   228  H          0.46947200       0.29682500       0.40349800
   229  H          0.03052800       0.79682500       0.40349800
   230  H          0.46947200       0.20317500       0.90349800
   231  H          0.96947200       0.29682500       0.09650200
   232  H          0.53052800       0.70317500       0.59650200
   233  C          0.82072000       0.23475190       0.57844150
   234  C          0.67928000       0.76524810       0.07844150
   235  C          0.17928000       0.73475190       0.92155850
   236  C          0.32072000       0.26524810       0.42155850
   237  C          0.17928000       0.76524810       0.42155850
   238  C          0.32072000       0.23475190       0.92155850
   239  C          0.82072000       0.26524810       0.07844150
   240  C          0.67928000       0.73475190       0.57844150
   241  H          0.79536900       0.17636500       0.60401700
   242  H          0.70463100       0.82363500       0.10401700
   243  H          0.20463100       0.67636500       0.89598300
   244  H          0.29536900       0.32363500       0.39598300
   245  H          0.20463100       0.82363500       0.39598300
   246  H          0.29536900       0.17636500       0.89598300
   247  H          0.79536900       0.32363500       0.10401700
   248  H          0.70463100       0.67636500       0.60401700
   249  C          0.75382000       0.30573180       0.54541130
   250  C          0.74618000       0.69426820       0.04541130
   251  C          0.24618000       0.80573180       0.95458870
   252  C          0.25382000       0.19426820       0.45458870
   253  C          0.24618000       0.69426820       0.45458870
   254  C          0.25382000       0.30573180       0.95458870
   255  C          0.75382000       0.19426820       0.04541130
   256  C          0.74618000       0.80573180       0.54541130
   257  H          0.68340900       0.29481400       0.54904100
   258  H          0.81659100       0.70518600       0.04904100
   259  H          0.31659100       0.79481400       0.95095900
   260  H          0.18340900       0.20518600       0.45095900
   261  H          0.31659100       0.70518600       0.45095900
   262  H          0.18340900       0.29481400       0.95095900
   263  H          0.68340900       0.20518600       0.04904100
   264  H          0.81659100       0.79481400       0.54904100
