data_FOSMIL01
_symmetry_space_group_name_H-M    'P1'
_symmetry_Int_Tables_number       1
loop_
_symmetry_equiv_pos_site_id
_symmetry_equiv_pos_as_xyz
1 x,y,z
_cell_length_a                   7.405116
_cell_length_b                   9.7332
_cell_length_c                   10.3842
_cell_angle_alpha                74.1833
_cell_angle_beta                 84.0644
_cell_angle_gamma                78.9443
loop_
_atom_site_label
_atom_site_type_symbol
_atom_site_fract_x
_atom_site_fract_y
_atom_site_fract_z
     1  O          0.11683170       0.33039140       0.02043130
     2  O          0.88316830       0.66960860       0.97956870
     3  O          0.58451170       0.72611870       0.76031120
     4  O          0.41548830       0.27388130       0.23968880
     5  O          0.79198160       0.78773870       0.59201120
     6  O          0.20801840       0.21226130       0.40798880
     7  O          0.16606190       0.56920130       0.81752140
     8  O          0.83393810       0.43079870       0.18247860
     9  C          0.30272000       0.17543190       0.89215180
    10  C          0.69728000       0.82456810       0.10784820
    11  H          0.29080000       0.09170000       0.96320000
    12  H          0.70920000       0.90830000       0.03680000
    13  C          0.42092000       0.28462000       0.67111180
    14  C          0.57908000       0.71538000       0.32888820
    15  H          0.48750000       0.27640000       0.58960000
    16  H          0.51250000       0.72360000       0.41040000
    17  C          0.40222000       0.15967190       0.77387180
    18  C          0.59778000       0.84032810       0.22612820
    19  C          0.24282000       0.43374190       0.80557180
    20  C          0.75718000       0.56625810       0.19442820
    21  C          0.34262000       0.41999190       0.68803180
    22  C          0.65738000       0.58000810       0.31196820
    23  H          0.35740000       0.50420000       0.61840000
    24  H          0.64260000       0.49580000       0.38160000
    25  C          0.22102000       0.31070190       0.90803170
    26  C          0.77898000       0.68929810       0.09196830
    27  C          0.48032000       0.01332190       0.76330180
    28  C          0.51968000       0.98667810       0.23669820
    29  H          0.44760000       0.93630000       0.83500000
    30  H          0.55240000       0.06370000       0.16500000
    31  C          0.66492000       0.82219810       0.66920180
    32  C          0.33508000       0.17780190       0.33079820
    33  C          0.59172000       0.97468810       0.66536180
    34  C          0.40828000       0.02531190       0.33463820
    35  H          0.62500000       0.04820000       0.59040000
    36  H          0.37500000       0.95180000       0.40960000
    37  H          0.65030000       0.62470000       0.76420000
    38  H          0.34970000       0.37530000       0.23580000
    39  H          0.09230000       0.55930000       0.88630000
    40  H          0.90770000       0.44070000       0.11370000
    41  H          0.08050000       0.23740000       0.07740000
    42  H          0.91950000       0.76260000       0.92260000
    43  O          0.96697180       0.92890870       0.85207120
    44  O          0.03302820       0.07109130       0.14792880
    45  N          0.08982000       0.00473160       0.64251160
    46  N          0.91018000      -0.00473160       0.35748840
    47  N          0.17262000       0.86253840       0.63395160
    48  N          0.82738000       0.13746160       0.36604840
    49  C          0.90772000       0.18224180       0.75041180
    50  C          0.09228000       0.81775820       0.24958820
    51  N          0.74895190       0.46151160       0.76547150
    52  N          0.25104810       0.53848840       0.23452850
    53  C          0.82132000       0.20802000       0.86824180
    54  C          0.17868000       0.79198000       0.13175820
    55  H          0.81620000       0.13010000       0.94620000
    56  H          0.18380000       0.86990000       0.05380000
    57  C         -0.00818000       0.02818190       0.75116170
    58  C          0.00818000       0.97181810       0.24883830
    59  C          0.74242000       0.34785190       0.87208180
    60  C          0.25758000       0.65214810       0.12791820
    61  H          0.68150000       0.36380000       0.95320000
    62  H          0.31850000       0.63620000       0.04680000
    63  C          0.83332000       0.43640190       0.65254180
    64  C          0.16668000       0.56359810       0.34745820
    65  H          0.83880000       0.51670000       0.57670000
    66  H          0.16120000       0.48330000       0.42330000
    67  C          0.91362000       0.29987190       0.63915180
    68  C          0.08638000       0.70012810       0.36084820
    69  H          0.97120000       0.28690000       0.55620000
    70  H          0.02880000       0.71310000       0.44380000
    71  H          0.25530000       0.82880000       0.70320000
    72  H          0.74470000       0.17120000       0.29680000
    73  H          0.08030000       0.81080000       0.65420000
    74  H          0.91970000       0.18920000       0.34580000
    75  H          0.12530000       0.07230000       0.56820000
    76  H          0.87470000       0.92770000       0.43180000
