data_FOSMIL
_symmetry_space_group_name_H-M    'P1'
_symmetry_Int_Tables_number       1
loop_
_symmetry_equiv_pos_site_id
_symmetry_equiv_pos_as_xyz
1 x,y,z
_cell_length_a                   7.247012
_cell_length_b                   20.6944
_cell_length_c                   9.683616
_cell_angle_alpha                90.0
_cell_angle_beta                 100.9743
_cell_angle_gamma                90.0
loop_
_atom_site_label
_atom_site_type_symbol
_atom_site_fract_x
_atom_site_fract_y
_atom_site_fract_z
     1  H          0.51240000       0.60831300       0.04730000
     2  H          0.48760000       0.10831300       0.45270000
     3  H          0.48760000       0.39168700       0.95270000
     4  H          0.51240000       0.89168700       0.54730000
     5  O          0.32902000       0.91223700       0.81735150
     6  O          0.67098000       0.41223700       0.68264850
     7  O          0.67098000       0.08776300       0.18264850
     8  O          0.32902000       0.58776300       0.31735150
     9  O          0.06692000       0.89188700       0.65987150
    10  O          0.93308000       0.39188700       0.84012850
    11  O          0.93308000       0.10811300       0.34012850
    12  O          0.06692000       0.60811300       0.15987150
    13  O          0.44552000       0.57580700      -0.00409850
    14  O          0.55448000       0.07580700       0.50409850
    15  O          0.55448000       0.42419300       0.00409850
    16  O          0.44552000       0.92419300       0.49590150
    17  O          0.31442000       0.49150700       0.78854170
    18  O          0.68558000       0.99150700       0.71145830
    19  O          0.68558000       0.50849300       0.21145830
    20  O          0.31442000       0.00849300       0.28854170
    21  C          0.17083000       0.75608100       0.69452000
    22  C          0.82917000       0.25608100       0.80548000
    23  C          0.82917000       0.24391900       0.30548000
    24  C          0.17083000       0.74391900       0.19452000
    25  H          0.08330000       0.76720000       0.61180000
    26  H          0.91670000       0.26720000       0.88820000
    27  H          0.91670000       0.23280000       0.38820000
    28  H          0.08330000       0.73280000       0.11180000
    29  C          0.27713000       0.55552100       0.76712000
    30  C          0.72287000       0.05552100       0.73288000
    31  C          0.72287000       0.44447900       0.23288000
    32  C          0.27713000       0.94447900       0.26712000
    33  C          0.30933000       0.66510100       0.85022000
    34  C          0.69067000       0.16510100       0.64978000
    35  C          0.69067000       0.33489900       0.14978000
    36  C          0.30933000       0.83489900       0.35022000
    37  H          0.35440000       0.69520000       0.92280000
    38  H          0.64560000       0.19520000       0.57720000
    39  H          0.64560000       0.30480000       0.07720000
    40  H          0.35440000       0.80480000       0.42280000
    41  C          0.20723000       0.68735100       0.72112000
    42  C          0.79277000       0.18735100       0.77888000
    43  C          0.79277000       0.31264900       0.27888000
    44  C          0.20723000       0.81264900       0.22112000
    45  C          0.20423000       0.87292100       0.74332000
    46  C          0.79577000       0.37292100       0.75668000
    47  C          0.79577000       0.12707900       0.25668000
    48  C          0.20423000       0.62707900       0.24332000
    49  C          0.34503000       0.60060100       0.87302000
    50  C          0.65497000       0.10060100       0.62698000
    51  C          0.65497000       0.39939900       0.12698000
    52  C          0.34503000       0.89939900       0.37302000
    53  C          0.17343000       0.57664100       0.64042000
    54  C          0.82657000       0.07664100       0.85958000
    55  C          0.82657000       0.42335900       0.35958000
    56  C          0.17343000       0.92335900       0.14042000
    57  H          0.12630000       0.54630000       0.56870000
    58  H          0.87370000       0.04630000       0.93130000
    59  H          0.87370000       0.45370000       0.43130000
    60  H          0.12630000       0.95370000       0.06870000
    61  C          0.24863000       0.80450100       0.77522000
    62  C          0.75137000       0.30450100       0.72478000
    63  C          0.75137000       0.19549900       0.22478000
    64  C          0.24863000       0.69549900       0.27522000
    65  H          0.33760000       0.79440000       0.85780000
    66  H          0.66240000       0.29440000       0.64220000
    67  H          0.66240000       0.20560000       0.14220000
    68  H          0.33760000       0.70560000       0.35780000
    69  C          0.13813000       0.64202100       0.61772000
    70  C          0.86187000       0.14202100       0.88228000
    71  C          0.86187000       0.35797900       0.38228000
    72  C          0.13813000       0.85797900       0.11772000
    73  H          0.06600000       0.65610000       0.53060000
    74  H          0.93400000       0.15610000       0.96940000
    75  H          0.93400000       0.34390000       0.46940000
    76  H          0.06600000       0.84390000       0.03060000
    77  H          0.29540000       0.96041600       0.79630000
    78  H          0.70460000       0.46041600       0.70370000
    79  H          0.70460000       0.03958400       0.20370000
    80  H          0.29540000       0.53958400       0.29630000
    81  H          0.39550000       0.48791600       0.87740000
    82  H          0.60450000       0.98791600       0.62260000
    83  H          0.60450000       0.51208400       0.12260000
    84  H          0.39550000       0.01208400       0.37740000
    85  O          0.26512000       0.26237700       0.60516140
    86  O          0.73488000       0.76237700       0.89483860
    87  O          0.73488000       0.73762300       0.39483860
    88  O          0.26512000       0.23762300       0.10516140
    89  N          0.30422000       0.27888800       0.83777180
    90  N          0.69578000       0.77888800       0.66222820
    91  N          0.69578000       0.72111200       0.16222820
    92  N          0.30422000       0.22111200       0.33777180
    93  N          0.32173000       0.34664800       0.82376190
    94  N          0.67827000       0.84664800       0.67623810
    95  N          0.67827000       0.65335200       0.17623810
    96  N          0.32173000       0.15335200       0.32376190
    97  N          0.26462000       0.03562800       0.78514180
    98  N          0.73538000       0.53562800       0.71485820
    99  N          0.73538000       0.96437200       0.21485820
   100  N          0.26462000       0.46437200       0.28514180
   101  C          0.27063000       0.16905100       0.75262000
   102  C          0.72937000       0.66905100       0.74738000
   103  C          0.72937000       0.83094900       0.24738000
   104  C          0.27063000       0.33094900       0.25262000
   105  C          0.17413000       0.12974100       0.64672000
   106  C          0.82587000       0.62974100       0.85328000
   107  C          0.82587000       0.87025900       0.35328000
   108  C          0.17413000       0.37025900       0.14672000
   109  H          0.10860000       0.14810000       0.56130000
   110  H          0.89140000       0.64810000       0.93870000
   111  H          0.89140000       0.85190000       0.43870000
   112  H          0.10860000       0.35190000       0.06130000
   113  C          0.27833000       0.24029100       0.72582000
   114  C          0.72167000       0.74029100       0.77418000
   115  C          0.72167000       0.75970900       0.27418000
   116  C          0.27833000       0.25970900       0.22582000
   117  C          0.36133000       0.14013100       0.87622000
   118  C          0.63867000       0.64013100       0.62378000
   119  C          0.63867000       0.85986900       0.12378000
   120  C          0.36133000       0.35986900       0.37622000
   121  H          0.42690000       0.16550000       0.95150000
   122  H          0.57310000       0.66550000       0.54850000
   123  H          0.57310000       0.83450000       0.04850000
   124  H          0.42690000       0.33450000       0.45150000
   125  C          0.17453000       0.06407100       0.66682000
   126  C          0.82547000       0.56407100       0.83318000
   127  C          0.82547000       0.93592900       0.33318000
   128  C          0.17453000       0.43592900       0.16682000
   129  H          0.10800000       0.03760000       0.59380000
   130  H          0.89200000       0.53760000       0.90620000
   131  H          0.89200000       0.96240000       0.40620000
   132  H          0.10800000       0.46240000       0.09380000
   133  C          0.35433000       0.07407100       0.88762000
   134  C          0.64567000       0.57407100       0.61238000
   135  C          0.64567000       0.92592900       0.11238000
   136  C          0.35433000       0.42592900       0.38762000
   137  H          0.41640000       0.05460000       0.97270000
   138  H          0.58360000       0.55460000       0.52730000
   139  H          0.58360000       0.94540000       0.02730000
   140  H          0.41640000       0.44540000       0.47270000
   141  H          0.20530000       0.36471000       0.81420000
   142  H          0.79470000       0.86471000       0.68580000
   143  H          0.79470000       0.63529000       0.18580000
   144  H          0.20530000       0.13529000       0.31420000
   145  H          0.29730000       0.26521100       0.92320000
   146  H          0.70270000       0.76521100       0.57680000
   147  H          0.70270000       0.73478900       0.07680000
   148  H          0.29730000       0.23478900       0.42320000
   149  H          0.35030000       0.35281200       0.74030000
   150  H          0.64970000       0.85281200       0.75970000
   151  H          0.64970000       0.64718800       0.25970000
   152  H          0.35030000       0.14718800       0.24030000
