data_FOSMIL03
_symmetry_space_group_name_H-M    'P1'
_symmetry_Int_Tables_number       1
loop_
_symmetry_equiv_pos_site_id
_symmetry_equiv_pos_as_xyz
1 x,y,z
_cell_length_a                   7.1734
_cell_length_b                   9.5055
_cell_length_c                   10.8846
_cell_angle_alpha                109.23117
_cell_angle_beta                 90.642
_cell_angle_gamma                93.17417
loop_
_atom_site_label
_atom_site_type_symbol
_atom_site_fract_x
_atom_site_fract_y
_atom_site_fract_z
     1  O          0.77496180       0.21470130       0.11662110
     2  O          0.22503820       0.78529870       0.88337890
     3  O          0.81975160       0.34415130       0.32863110
     4  O          0.18024840       0.65584870       0.67136890
     5  O          0.58583170       0.67489130       0.49641110
     6  O          0.41416830       0.32510870       0.50358890
     7  O          0.40349170       0.44522130       0.30516120
     8  O          0.59650830       0.55477870       0.69483880
     9  C          0.55932000       0.83809170       0.22968150
    10  C          0.44068000       0.16190830       0.77031850
    11  C          0.59432000       0.82686180       0.35376160
    12  C          0.40568000       0.17313820       0.64623840
    13  C          0.54642000       0.69612170       0.37978150
    14  C          0.45358000       0.30387830       0.62021850
    15  C          0.45602000       0.57527170       0.28320160
    16  C          0.54398000       0.42472830       0.71679840
    17  C          0.41962000       0.58579190       0.16120160
    18  C          0.58038000       0.41420810       0.83879840
    19  C          0.47182000       0.71591180       0.13361160
    20  C          0.52818000       0.28408820       0.86638840
    21  C          0.62112000       0.97047180       0.19597160
    22  C          0.37888000       0.02952820       0.80402840
    23  C          0.68862000       0.10195180       0.27725170
    24  C          0.31138000       0.89804820       0.72274830
    25  C          0.76332000       0.22409180       0.23179160
    26  C          0.23668000       0.77590820       0.76820840
    27  H          0.86230000       0.42730000       0.29320000
    28  H          0.13770000       0.57270000       0.70680000
    29  H          0.65820000       0.90621800       0.42181600
    30  H          0.34180000       0.09378200       0.57818400
    31  H          0.66330000       0.75330000       0.55320000
    32  H          0.33670000       0.24670000       0.44680000
    33  H          0.43230000       0.44820000       0.37620000
    34  H          0.56770000       0.55180000       0.62380000
    35  H          0.35820000       0.49911600       0.09731400
    36  H          0.64180000       0.50088400       0.90268600
    37  H          0.45020000       0.72041800       0.04391600
    38  H          0.54980000       0.27958200       0.95608400
    39  H          0.61520000       0.95911800       0.10471600
    40  H          0.38480000       0.04088200       0.89528400
    41  H          0.69420000       0.12401800       0.37101600
    42  H          0.30580000       0.87598200       0.62898400
    43  O          0.17220150       0.10637120       0.35728100
    44  O          0.82779850       0.89362880       0.64271900
    45  N          0.16903190       0.02031160       0.13642130
    46  N          0.83096810       0.97968840       0.86357870
    47  N          0.23092000       0.16097160       0.12648150
    48  N          0.76908000       0.83902840       0.87351850
    49  N          0.94973820       0.57456150       0.27214130
    50  N          0.05026180       0.42543850       0.72785870
    51  C          0.07232000       0.85050170       0.25300150
    52  C          0.92768000       0.14949830       0.74699850
    53  C         -0.01182000       0.74011180       0.14590150
    54  C          0.01182000       0.25988820       0.85409850
    55  C          0.92838000       0.60434190       0.16003160
    56  C          0.07162000       0.39565810       0.83996840
    57  C          0.02832000       0.68191190       0.37502160
    58  C          0.97168000       0.31808810       0.62497840
    59  C          0.08912000       0.82065190       0.37000160
    60  C          0.91088000       0.17934810       0.62999840
    61  C          0.14322000       0.00279180       0.25296160
    62  C          0.85678000      -0.00279180       0.74703840
    63  H          0.16730000       0.94520000       0.05971900
    64  H          0.83270000       0.05480000       0.94028100
    65  H          0.35730000       0.18820000       0.17320000
    66  H          0.64270000       0.81180000       0.82680000
    67  H          0.15830000       0.22720000       0.17671800
    68  H          0.84170000       0.77280000       0.82328200
    69  H          0.97180000       0.75641700       0.06431600
    70  H          0.02820000       0.24358300       0.93568400
    71  H          0.86980000       0.52451900       0.08611700
    72  H          0.13020000       0.47548100       0.91388300
    73  H          0.04120000       0.65351800       0.44941600
    74  H          0.95880000       0.34648200       0.55058400
    75  H          0.14320000       0.89581800       0.44711600
    76  H          0.85680000       0.10418200       0.55288400
