data_FOVRUE01
_symmetry_space_group_name_H-M    'P1'
_symmetry_Int_Tables_number       1
loop_
_symmetry_equiv_pos_site_id
_symmetry_equiv_pos_as_xyz
1 x,y,z
_cell_length_a                   12.725511
_cell_length_b                   26.8332
_cell_length_c                   3.89383
_cell_angle_alpha                90.0
_cell_angle_beta                 90.0
_cell_angle_gamma                90.0
loop_
_atom_site_label
_atom_site_type_symbol
_atom_site_fract_x
_atom_site_fract_y
_atom_site_fract_z
     1  O          0.01322000       0.16596900       0.59779000
     2  O          0.98678000       0.83403100       0.09779000
     3  O          0.48678000       0.66596900       0.09779000
     4  O          0.51322000       0.33403100       0.59779000
     5  H          0.04030000       0.19310000       0.63560000
     6  H          0.95970000       0.80690000       0.13560000
     7  H          0.45970000       0.69310000       0.13560000
     8  H          0.54030000       0.30690000       0.63560000
     9  N          0.15042000       0.22694100       0.82257000
    10  N          0.84958000       0.77305900       0.32257000
    11  N          0.34958000       0.72694100       0.32257000
    12  N          0.65042000       0.27305900       0.82257000
    13  N          0.93207000       0.28884130       0.50901000
    14  N          0.06793000       0.71115870       0.00901000
    15  N          0.56793000       0.78884130       0.00901000
    16  N          0.43207000       0.21115870       0.50901000
    17  C          0.17373000       0.13864130       0.85659000
    18  C          0.82627000       0.86135870       0.35659000
    19  C          0.32627000       0.63864130       0.35659000
    20  C          0.67373000       0.36135870       0.85659000
    21  C          0.07703000       0.12986140       0.70521000
    22  C          0.92297000       0.87013860       0.20521000
    23  C          0.42297000       0.62986140       0.20521000
    24  C          0.57703000       0.37013860       0.70521000
    25  C          0.04143000       0.07991140       0.65241100
    26  C          0.95857000       0.92008860       0.15241100
    27  C          0.45857000       0.57991140       0.15241100
    28  C          0.54143000       0.42008860       0.65241100
    29  H          0.97610000       0.07430000       0.55250000
    30  H          0.02390000       0.92570000       0.05250000
    31  H          0.52390000       0.57430000       0.05250000
    32  H          0.47610000       0.42570000       0.55250000
    33  C          0.10154000       0.04114150       0.74621100
    34  C          0.89846000       0.95885850       0.24621100
    35  C          0.39846000       0.54114150       0.24621100
    36  C          0.60154000       0.45885850       0.74621100
    37  H          0.07690000       0.00890000       0.70920000
    38  H          0.92310000       0.99110000       0.20920000
    39  H          0.42310000       0.50890000       0.20920000
    40  H          0.57690000       0.49110000       0.70920000
    41  C          0.20103000       0.04788130       0.89949000
    42  C          0.79897000       0.95211870       0.39949000
    43  C          0.29897000       0.54788130       0.39949000
    44  C          0.70103000       0.45211870       0.89949000
    45  C          0.26404000       0.00692150      -0.00329000
    46  C          0.73596000       0.99307850       0.49671000
    47  C          0.23596000       0.50692150       0.49671000
    48  C          0.76404000       0.49307850      -0.00329000
    49  H          0.23860000       0.97480000      -0.03490000
    50  H          0.76140000       0.02520000       0.46510000
    51  H          0.26140000       0.47480000       0.46510000
    52  H          0.73860000       0.52520000      -0.03490000
    53  C          0.36074000       0.01345150       0.13511200
    54  C          0.63926000       0.98654850       0.63511200
    55  C          0.13926000       0.51345150       0.63511200
    56  C          0.86074000       0.48654850       0.13511200
    57  H          0.40160000       0.98600000       0.19290000
    58  H          0.59840000       0.01400000       0.69290000
    59  H          0.09840000       0.48600000       0.69290000
    60  H          0.90160000       0.51400000       0.19290000
    61  C          0.39883000       0.06148140       0.19071100
    62  C          0.60117000       0.93851860       0.69071100
    63  C          0.10117000       0.56148140       0.69071100
    64  C          0.89883000       0.43851860       0.19071100
    65  H          0.46510000       0.06600000       0.28630000
    66  H          0.53490000       0.93400000       0.78630000
    67  H          0.03490000       0.56600000       0.78630000
    68  H          0.96510000       0.43400000       0.28630000
    69  C          0.33913000       0.10199130       0.10531000
    70  C          0.66087000       0.89800870       0.60531000
    71  C          0.16087000       0.60199130       0.60531000
    72  C          0.83913000       0.39800870       0.10531000
    73  H          0.36560000       0.13370000       0.14610000
    74  H          0.63440000       0.86630000       0.64610000
    75  H          0.13440000       0.63370000       0.64610000
    76  H          0.86560000       0.36630000       0.14610000
    77  C          0.23843000       0.09702130       0.95698000
    78  C          0.76157000       0.90297870       0.45698000
    79  C          0.26157000       0.59702130       0.45698000
    80  C          0.73843000       0.40297870       0.95698000
    81  C          0.20633000       0.18922130       0.92278000
    82  C          0.79367000       0.81077870       0.42278000
    83  C          0.29367000       0.68922130       0.42278000
    84  C          0.70633000       0.31077870       0.92278000
    85  H          0.26880000       0.19490000       0.03980000
    86  H          0.73120000       0.80510000       0.53980000
    87  H          0.23120000       0.69490000       0.53980000
    88  H          0.76880000       0.30510000       0.03980000
    89  C          0.18123000       0.27681120       0.88739000
    90  C          0.81877000       0.72318880       0.38739000
    91  C          0.31877000       0.77681120       0.38739000
    92  C          0.68123000       0.22318880       0.88739000
    93  C          0.10893000       0.31327120       0.78489000
    94  C          0.89107000       0.68672880       0.28489000
    95  C          0.39107000       0.81327120       0.28489000
    96  C          0.60893000       0.18672880       0.78489000
    97  C          0.13153000       0.36322140       0.83101000
    98  C          0.86847000       0.63677860       0.33101000
    99  C          0.36847000       0.86322140       0.33101000
   100  C          0.63153000       0.13677860       0.83101000
   101  H          0.08290000       0.38730000       0.76510000
   102  H          0.91710000       0.61270000       0.26510000
   103  H          0.41710000       0.88730000       0.26510000
   104  H          0.58290000       0.11270000       0.76510000
   105  C          0.22533000       0.37737140      -0.02619000
   106  C          0.77467000       0.62262860       0.47381000
   107  C          0.27467000       0.87737140       0.47381000
   108  C          0.72533000       0.12262860      -0.02619000
   109  H          0.24050000       0.41100000       0.00230000
   110  H          0.75950000       0.58900000       0.50230000
   111  H          0.25950000       0.91100000       0.50230000
   112  H          0.74050000       0.08900000       0.00230000
   113  C          0.29693000       0.34191140       0.07491200
   114  C          0.70307000       0.65808860       0.57491200
   115  C          0.20307000       0.84191140       0.57491200
   116  C          0.79693000       0.15808860       0.07491200
   117  H          0.36020000       0.35160000       0.17420000
   118  H          0.63980000       0.64840000       0.67420000
   119  H          0.13980000       0.85160000       0.67420000
   120  H          0.86020000       0.14840000       0.17420000
   121  C          0.27493000       0.29223130       0.02931000
   122  C          0.72507000       0.70776870       0.52931000
   123  C          0.22507000       0.79223130       0.52931000
   124  C          0.77493000       0.20776870       0.02931000
   125  H          0.32430000       0.26850000       0.09550000
   126  H          0.67570000       0.73150000       0.59550000
   127  H          0.17570000       0.76850000       0.59550000
   128  H          0.82430000       0.23150000       0.09550000
   129  C          0.01023000       0.29899140       0.63291000
   130  C         -0.01023000       0.70100860       0.13291000
   131  C          0.48977000       0.79899140       0.13291000
   132  C          0.51023000       0.20100860       0.63291000
