data_FOVRUE02
_symmetry_space_group_name_H-M    'P1'
_symmetry_Int_Tables_number       1
loop_
_symmetry_equiv_pos_site_id
_symmetry_equiv_pos_as_xyz
1 x,y,z
_cell_length_a                   7.64259
_cell_length_b                   12.507911
_cell_length_c                   13.914712
_cell_angle_alpha                90.0
_cell_angle_beta                 90.0
_cell_angle_gamma                90.0
loop_
_atom_site_label
_atom_site_type_symbol
_atom_site_fract_x
_atom_site_fract_y
_atom_site_fract_z
     1  O          0.35536180       0.33583110       0.28652800
     2  O          0.14463820       0.66416890       0.78652800
     3  O          0.64463820       0.83583110       0.21347200
     4  O          0.85536180       0.16416890       0.71347200
     5  H          0.31740000       0.39230000       0.26510000
     6  H          0.18260000       0.60770000       0.76510000
     7  H          0.68260000       0.89230000       0.23490000
     8  H          0.81740000       0.10770000       0.73490000
     9  N          0.23911190       0.46477110       0.16227100
    10  N          0.26088810       0.53522890       0.66227100
    11  N          0.76088810       0.96477110       0.33772900
    12  N          0.73911190       0.03522890       0.83772900
    13  N          0.07602000       0.54903120       0.37819110
    14  N          0.42398000       0.45096880       0.87819110
    15  N          0.92398000       0.04903120       0.12180890
    16  N          0.57602000       0.95096880       0.62180890
    17  C          0.29092000       0.28156130       0.12411120
    18  C          0.20908000       0.71843870       0.62411120
    19  C          0.70908000       0.78156130       0.37588880
    20  C          0.79092000       0.21843870       0.87588880
    21  C          0.35182000       0.26108140       0.21746120
    22  C          0.14818000       0.73891860       0.71746120
    23  C          0.64818000       0.76108140       0.28253880
    24  C          0.85182000       0.23891860       0.78253880
    25  C          0.41422000       0.15849150       0.24308140
    26  C          0.08578000       0.84150850       0.74308140
    27  C          0.58578000       0.65849150       0.25691860
    28  C          0.91422000       0.34150850       0.75691860
    29  H          0.45670000       0.14630000       0.30480000
    30  H          0.04330000       0.85370000       0.80480000
    31  H          0.54330000       0.64630000       0.19520000
    32  H          0.95670000       0.35370000       0.69520000
    33  C          0.41232000       0.07792150       0.17795150
    34  C          0.08768000       0.92207850       0.67795150
    35  C          0.58768000       0.57792150       0.32204850
    36  C          0.91232000       0.42207850       0.82204850
    37  H          0.45300000       0.01080000       0.19610000
    38  H          0.04700000      -0.01080000       0.69610000
    39  H          0.54700000       0.51080000       0.30390000
    40  H          0.95300000       0.48920000       0.80390000
    41  C          0.35002000       0.09301130       0.08280130
    42  C          0.14998000       0.90698870       0.58280130
    43  C          0.64998000       0.59301130       0.41719870
    44  C          0.85002000       0.40698870       0.91719870
    45  C          0.34842000       0.00781150       0.01616160
    46  C          0.15158000      -0.00781150       0.51616160
    47  C          0.65158000       0.50781150       0.48383840
    48  C          0.84842000       0.49218850       0.98383840
    49  H          0.38920000       0.94090000       0.03490000
    50  H          0.11080000       0.05910000       0.53490000
    51  H          0.61080000       0.44090000       0.46510000
    52  H          0.88920000       0.55910000       0.96510000
    53  C          0.28772000       0.02205150       0.92467850
    54  C          0.21228000       0.97794850       0.42467850
    55  C          0.71228000       0.52205150       0.57532150
    56  C          0.78772000       0.47794850       0.07532150
    57  H          0.28720000       0.96530000       0.88150000
    58  H          0.21280000       0.03470000       0.38150000
    59  H          0.71280000       0.46530000       0.61850000
    60  H          0.78720000       0.53470000       0.11850000
    61  C          0.22602000       0.12304150       0.89642860
    62  C          0.27398000       0.87695850       0.39642860
    63  C          0.77398000       0.62304150       0.60357140
    64  C          0.72602000       0.37695850       0.10357140
    65  H          0.18440000       0.13270000       0.83420000
    66  H          0.31560000       0.86730000       0.33420000
    67  H          0.81560000       0.63270000       0.66580000
    68  H          0.68440000       0.36730000       0.16580000
    69  C          0.22622000       0.20774130       0.95925880
    70  C          0.27378000       0.79225870       0.45925880
    71  C          0.77378000       0.70774130       0.54074120
    72  C          0.72622000       0.29225870       0.04074120
    73  H          0.18500000       0.27390000       0.93880000
    74  H          0.31500000       0.72610000       0.43880000
    75  H          0.81500000       0.77390000       0.56120000
    76  H          0.68500000       0.22610000       0.06120000
    77  C          0.28802000       0.19593130       0.05461120
    78  C          0.21198000       0.80406870       0.55461120
    79  C          0.71198000       0.69593130       0.44538880
    80  C          0.78802000       0.30406870       0.94538880
    81  C          0.23822000       0.38912130       0.09859110
    82  C          0.26178000       0.61087870       0.59859110
    83  C          0.76178000       0.88912130       0.40140890
    84  C          0.73822000       0.11087870       0.90140890
    85  H          0.20340000       0.40400000       0.03600000
    86  H          0.29660000       0.59600000       0.53600000
    87  H          0.79660000       0.90400000       0.46400000
    88  H          0.70340000       0.09600000       0.96400000
    89  C          0.19612000       0.57066130       0.13744110
    90  C          0.30388000       0.42933870       0.63744110
    91  C          0.80388000       0.07066130       0.36255890
    92  C          0.69612000       0.92933870       0.86255890
    93  C          0.12182000       0.63427130       0.21011110
    94  C          0.37818000       0.36572870       0.71011110
    95  C          0.87818000       0.13427130       0.28988890
    96  C          0.62182000       0.86572870       0.78988890
    97  C          0.07662000       0.74067130       0.19279120
    98  C          0.42338000       0.25932870       0.69279120
    99  C          0.92338000       0.24067130       0.30720880
   100  C          0.57662000       0.75932870       0.80720880
   101  H          0.02610000       0.78170000       0.24110000
   102  H          0.47390000       0.21830000       0.74110000
   103  H          0.97390000       0.28170000       0.25890000
   104  H          0.52610000       0.71830000       0.75890000
   105  C          0.10762000       0.78479140       0.10302130
   106  C          0.39238000       0.21520860       0.60302130
   107  C          0.89238000       0.28479140       0.39697870
   108  C          0.60762000       0.71520860       0.89697870
   109  H          0.07680000       0.85540000       0.09070000
   110  H          0.42320000       0.14460000       0.59070000
   111  H          0.92320000       0.35540000       0.40930000
   112  H          0.57680000       0.64460000       0.90930000
   113  C          0.18483000       0.72323140       0.03152120
   114  C          0.31517000       0.27676860       0.53152120
   115  C          0.81517000       0.22323140       0.46847880
   116  C          0.68483000       0.77676860       0.96847880
   117  H          0.20710000       0.75360000       0.97170000
   118  H          0.29290000       0.24640000       0.47170000
   119  H          0.79290000       0.25360000       0.52830000
   120  H          0.70710000       0.74640000       0.02830000
   121  C          0.22942000       0.61689130       0.04798110
   122  C          0.27058000       0.38310870       0.54798110
   123  C          0.77058000       0.11689130       0.45201890
   124  C          0.72942000       0.88310870       0.95201890
   125  H          0.28120000       0.57670000      -0.00050000
   126  H          0.21880000       0.42330000       0.49950000
   127  H          0.71880000       0.07670000       0.50050000
   128  H          0.78120000       0.92330000       0.00050000
   129  C          0.09432000       0.58703130       0.30365120
   130  C          0.40568000       0.41296870       0.80365120
   131  C          0.90568000       0.08703130       0.19634880
   132  C          0.59432000       0.91296870       0.69634880
