data_FOVRUE
_symmetry_space_group_name_H-M    'P1'
_symmetry_Int_Tables_number       1
loop_
_symmetry_equiv_pos_site_id
_symmetry_equiv_pos_as_xyz
1 x,y,z
_cell_length_a                   13.464013
_cell_length_b                   7.44506
_cell_length_c                   15.409011
_cell_angle_alpha                90.0
_cell_angle_beta                 116.6606
_cell_angle_gamma                90.0
loop_
_atom_site_label
_atom_site_type_symbol
_atom_site_fract_x
_atom_site_fract_y
_atom_site_fract_z
     1  O          0.22890150       0.59073000       0.92351880
     2  O          0.77109850       0.09073000       0.57648120
     3  O          0.77109850       0.40927000       0.07648120
     4  O          0.22890150       0.90927000       0.42351880
     5  H          0.17180000       0.64360000       0.91480000
     6  H          0.82820000       0.14360000       0.58520000
     7  H          0.82820000       0.35640000       0.08520000
     8  H          0.17180000       0.85640000       0.41480000
     9  N          0.07487140       0.70382000       0.96287880
    10  N          0.92512860       0.20382000       0.53712120
    11  N          0.92512860       0.29618000       0.03712120
    12  N          0.07487140       0.79618000       0.46287880
    13  N          0.01882000       0.79664000       0.72652840
    14  N          0.98118000       0.29664000       0.77347160
    15  N          0.98118000       0.20336000       0.27347160
    16  N          0.01882000       0.70336000       0.22652840
    17  C          0.24373170       0.58123000       0.08450160
    18  C          0.75626830       0.08123000       0.41549840
    19  C          0.75626830       0.41877000       0.91549840
    20  C          0.24373170       0.91877000       0.58450160
    21  C          0.13677170       0.66103000       0.05282160
    22  C          0.86322830       0.16103000       0.44717840
    23  C          0.86322830       0.33897000       0.94717840
    24  C          0.13677170       0.83897000       0.55282160
    25  H          0.11050000       0.68310000       0.09830000
    26  H          0.88950000       0.18310000       0.40170000
    27  H          0.88950000       0.31690000       0.90170000
    28  H          0.11050000       0.81690000       0.59830000
    29  C          0.96814830       0.78093000       0.92909850
    30  C          0.03185170       0.28093000       0.57090150
    31  C          0.03185170       0.21907000       0.07090150
    32  C          0.96814830       0.71907000       0.42909850
    33  C          0.91679820       0.83603000       0.83244840
    34  C          0.08320180       0.33603000       0.66755160
    35  C          0.08320180       0.16397000       0.16755160
    36  C          0.91679820       0.66397000       0.33244840
    37  C          0.30954170       0.52673000       0.18411160
    38  C          0.69045830       0.02673000       0.31588840
    39  C          0.69045830       0.47327000       0.81588840
    40  C          0.30954170       0.97327000       0.68411160
    41  C          0.47292000       0.37103000       0.30642000
    42  C          0.52708000       0.87103000       0.19358000
    43  C          0.52708000       0.62897000       0.69358000
    44  C          0.47292000       0.12897000       0.80642000
    45  H          0.53810000       0.30680000       0.32280000
    46  H          0.46190000       0.80680000       0.17720000
    47  H          0.46190000       0.69320000       0.67720000
    48  H          0.53810000       0.19320000       0.82280000
    49  C          0.41020190       0.43023000       0.21022180
    50  C          0.58979810       0.93023000       0.28977820
    51  C          0.58979810       0.56977000       0.78977820
    52  C          0.41020190       0.06977000       0.71022180
    53  C          0.27932000       0.56383000       0.25909170
    54  C          0.72068000       0.06383000       0.24090830
    55  C          0.72068000       0.43617000       0.74090830
    56  C          0.27932000       0.93617000       0.75909170
    57  H          0.21500000       0.62900000       0.24510000
    58  H          0.78500000       0.12900000       0.25490000
    59  H          0.78500000       0.37100000       0.75490000
    60  H          0.21500000       0.87100000       0.74510000
    61  C          0.28392000       0.54403000       0.01600180
    62  C          0.71608000       0.04403000       0.48399820
    63  C          0.71608000       0.45597000       0.98399820
    64  C          0.28392000       0.95597000       0.51600180
    65  C          0.91198810       0.80583000       0.98531840
    66  C          0.08801190       0.30583000       0.51468160
    67  C          0.08801190       0.19417000       0.01468160
    68  C          0.91198810       0.69417000       0.48531840
    69  H          0.94480000       0.77090000       0.05020000
    70  H          0.05520000       0.27090000       0.44980000
    71  H          0.05520000       0.22910000       0.94980000
    72  H          0.94480000       0.72910000       0.55020000
    73  C          0.80778000       0.88233000       0.94460820
    74  C          0.19222000       0.38233000       0.55539180
    75  C          0.19222000       0.11767000       0.05539180
    76  C          0.80778000       0.61767000       0.44460820
    77  H          0.77080000       0.89830000       0.98250000
    78  H          0.22920000       0.39830000       0.51750000
    79  H          0.22920000       0.10170000       0.01750000
    80  H          0.77080000       0.60170000       0.48250000
    81  C          0.81168000       0.91353000       0.79236820
    82  C          0.18832000       0.41353000       0.70763180
    83  C          0.18832000       0.08647000       0.20763180
    84  C          0.81168000       0.58647000       0.29236820
    85  H          0.77840000       0.95020000       0.72780000
    86  H          0.22160000       0.45020000       0.77220000
    87  H          0.22160000       0.04980000       0.27220000
    88  H          0.77840000       0.54980000       0.22780000
    89  C          0.75738000       0.93553000       0.84876810
    90  C          0.24262000       0.43553000       0.65123190
    91  C          0.24262000       0.06447000       0.15123190
    92  C          0.75738000       0.56447000       0.34876810
    93  H          0.68670000      -0.01380000       0.82240000
    94  H          0.31330000       0.48620000       0.67760000
    95  H          0.31330000       0.01380000       0.17760000
    96  H          0.68670000       0.51380000       0.32240000
    97  C          0.44492000       0.39493000       0.13722000
    98  C          0.55508000       0.89493000       0.36278000
    99  C          0.55508000       0.60507000       0.86278000
   100  C          0.44492000       0.10507000       0.63722000
   101  H          0.51050000       0.33160000       0.15370000
   102  H          0.48950000       0.83160000       0.34630000
   103  H          0.48950000       0.66840000       0.84630000
   104  H          0.51050000       0.16840000       0.65370000
   105  C          0.38592000       0.45004000       0.04532000
   106  C          0.61408000       0.95004000       0.45468000
   107  C          0.61408000       0.54996000       0.95468000
   108  C          0.38592000       0.04996000       0.54532000
   109  H          0.41210000       0.42640000      -0.00010000
   110  H          0.58790000       0.92640000       0.50010000
   111  H          0.58790000       0.57360000       0.00010000
   112  H          0.41210000       0.07360000       0.49990000
   113  C          0.97378000       0.81304000       0.77341830
   114  C          0.02622000       0.31304000       0.72658170
   115  C          0.02622000       0.18696000       0.22658170
   116  C          0.97378000       0.68696000       0.27341830
   117  C          0.34322000       0.50534000       0.35194190
   118  C          0.65678000       0.00534000       0.14805810
   119  C          0.65678000       0.49466000       0.64805810
   120  C          0.34322000      -0.00534000       0.85194190
   121  H          0.32180000       0.53220000       0.40010000
   122  H          0.67820000       0.03220000       0.09990000
   123  H          0.67820000       0.46780000       0.59990000
   124  H          0.32180000       0.96780000       0.90010000
   125  C          0.43942000       0.40644000       0.37552000
   126  C          0.56058000       0.90644000       0.12448000
   127  C          0.56058000       0.59356000       0.62448000
   128  C          0.43942000       0.09356000       0.87552000
   129  H          0.48080000       0.36470000       0.43860000
   130  H          0.51920000       0.86470000       0.06140000
   131  H          0.51920000       0.63530000       0.56140000
   132  H          0.48080000       0.13530000       0.93860000
