data_FOVRUE04
_symmetry_space_group_name_H-M    'P1'
_symmetry_Int_Tables_number       1
loop_
_symmetry_equiv_pos_site_id
_symmetry_equiv_pos_as_xyz
1 x,y,z
_cell_length_a                   4.96478
_cell_length_b                   18.7383
_cell_length_c                   15.1752
_cell_angle_alpha                90.0
_cell_angle_beta                 96.22314
_cell_angle_gamma                90.0
loop_
_atom_site_label
_atom_site_type_symbol
_atom_site_fract_x
_atom_site_fract_y
_atom_site_fract_z
     1  O          0.48246000       0.17081160       0.43516160
     2  O          0.01754000       0.67081160       0.06483840
     3  O          0.51754000       0.82918840       0.56483840
     4  O         -0.01754000       0.32918840       0.93516160
     5  H          0.57660000       0.19650000       0.40720000
     6  H          0.92340000       0.69650000       0.09280000
     7  H          0.42340000       0.80350000       0.59280000
     8  H          0.07660000       0.30350000       0.90720000
     9  N          0.66915000       0.22380160       0.30135160
    10  N          0.83085000       0.72380160       0.19864840
    11  N          0.33085000       0.77619840       0.69864840
    12  N          0.16915000       0.27619840       0.80135160
    13  N          0.95687000       0.29742000       0.49572000
    14  N          0.54313000       0.79742000       0.00428000
    15  N          0.04313000       0.70258000       0.50428000
    16  N          0.45687000       0.20258000      -0.00428000
    17  C          0.31416000       0.13744190       0.28632000
    18  C          0.18584000       0.63744190       0.21368000
    19  C          0.68584000       0.86255810       0.71368000
    20  C          0.81416000       0.36255810       0.78632000
    21  C          0.31628000       0.13232000       0.37873000
    22  C          0.18372000       0.63232000       0.12127000
    23  C          0.68372000       0.86768000       0.62127000
    24  C          0.81628000       0.36768000       0.87873000
    25  C          0.13221000       0.08473000       0.41663000
    26  C          0.36779000       0.58473000       0.08337000
    27  C          0.86779000       0.91527000       0.58337000
    28  C          0.63221000       0.41527000       0.91663000
    29  H          0.13300000       0.08170000       0.47780000
    30  H          0.36700000       0.58170000       0.02220000
    31  H          0.86700000       0.91830000       0.52220000
    32  H          0.63300000       0.41830000       0.97780000
    33  C          0.96121000       0.04512000       0.36393000
    34  C          0.53879000       0.54512000       0.13607000
    35  C          0.03879000       0.95488000       0.63607000
    36  C          0.46121000       0.45488000       0.86393000
    37  H          0.84510000       0.01430000       0.38930000
    38  H          0.65490000       0.51430000       0.11070000
    39  H          0.15490000       0.98570000       0.61070000
    40  H          0.34510000       0.48570000       0.88930000
    41  C          0.94903000       0.04812000       0.27063000
    42  C          0.55097000       0.54812000       0.22937000
    43  C          0.05097000       0.95188000       0.72937000
    44  C          0.44903000       0.45188000       0.77063000
    45  C          0.75911000       0.00762000       0.21734000
    46  C          0.74089000       0.50762000       0.28266000
    47  C          0.24089000       0.99238000       0.78266000
    48  C          0.25911000       0.49238000       0.71734000
    49  H          0.64410000       0.97730000       0.24400000
    50  H          0.85590000       0.47730000       0.25600000
    51  H          0.35590000       0.02270000       0.75600000
    52  H          0.14410000       0.52270000       0.74400000
    53  C          0.73852000       0.01142000       0.12814000
    54  C          0.76148000       0.51142000       0.37186000
    55  C          0.26148000       0.98858000       0.87186000
    56  C          0.23852000       0.48858000       0.62814000
    57  H          0.61340000       0.98330000       0.09380000
    58  H          0.88660000       0.48330000       0.40620000
    59  H          0.38660000       0.01670000       0.90620000
    60  H          0.11340000       0.51670000       0.59380000
    61  C          0.90542000       0.05762000       0.08813000
    62  C          0.59458000       0.55762000       0.41187000
    63  C          0.09458000       0.94238000       0.91187000
    64  C          0.40542000       0.44238000       0.58813000
    65  H          0.88990000       0.06080000       0.02660000
    66  H          0.61010000       0.56080000       0.47340000
    67  H          0.11010000       0.93920000       0.97340000
    68  H          0.38990000       0.43920000       0.52660000
    69  C          0.09287000       0.09872000       0.13742000
    70  C          0.40713000       0.59872000       0.36258000
    71  C          0.90713000       0.90128000       0.86258000
    72  C          0.59287000       0.40128000       0.63742000
    73  H          0.20270000       0.12940000       0.10910000
    74  H          0.29730000       0.62940000       0.39090000
    75  H          0.79730000       0.87060000       0.89090000
    76  H          0.70270000       0.37060000       0.60910000
    77  C          0.12157000       0.09496180       0.23092000
    78  C          0.37843000       0.59496180       0.26908000
    79  C          0.87843000       0.90503820       0.76908000
    80  C          0.62157000       0.40503820       0.73092000
    81  C          0.50046000       0.18415180       0.25152000
    82  C         -0.00046000       0.68415180       0.24848000
    83  C          0.49954000       0.81584820       0.74848000
    84  C          0.00046000       0.31584820       0.75152000
    85  H          0.50200000       0.18650000       0.19030000
    86  H         -0.00200000       0.68650000       0.30970000
    87  H          0.49800000       0.81350000       0.80970000
    88  H          0.00200000       0.31350000       0.69030000
    89  C          0.85436000       0.27021180       0.26732000
    90  C          0.64564000       0.77021180       0.23268000
    91  C          0.14564000       0.72978820       0.73268000
    92  C          0.35436000       0.22978820       0.76732000
    93  C          0.01827000       0.30923180       0.33012000
    94  C          0.48173000       0.80923180       0.16988000
    95  C         -0.01827000       0.69076820       0.66988000
    96  C          0.51827000       0.19076820       0.83012000
    97  C          0.21287000       0.35562000       0.30382000
    98  C          0.28713000       0.85562000       0.19618000
    99  C          0.78713000       0.64438000       0.69618000
   100  C          0.71287000       0.14438000       0.80382000
   101  H          0.32210000       0.38130000       0.34620000
   102  H          0.17790000       0.88130000       0.15380000
   103  H          0.67790000       0.61870000       0.65380000
   104  H          0.82210000       0.11870000       0.84620000
   105  C          0.24477000       0.36382000       0.21573000
   106  C          0.25523000       0.86382000       0.28427000
   107  C          0.75523000       0.63618000       0.78427000
   108  C          0.74477000       0.13618000       0.71573000
   109  H          0.37530000       0.39470000       0.19830000
   110  H          0.12470000       0.89470000       0.30170000
   111  H          0.62470000       0.60530000       0.80170000
   112  H          0.87530000       0.10530000       0.69830000
   113  C          0.08287000       0.32602000       0.15402000
   114  C          0.41713000       0.82602000       0.34598000
   115  C          0.91713000       0.67398000       0.84598000
   116  C          0.58287000       0.17398000       0.65402000
   117  H          0.10340000       0.33160000       0.09420000
   118  H          0.39660000       0.83160000       0.40580000
   119  H          0.89660000       0.66840000       0.90580000
   120  H          0.60340000       0.16840000       0.59420000
   121  C          0.88887000       0.27946190       0.17882000
   122  C          0.61113000       0.77946190       0.32118000
   123  C          0.11113000       0.72053810       0.82118000
   124  C          0.38887000       0.22053810       0.67882000
   125  H          0.78060000       0.25420000       0.13570000
   126  H          0.71940000       0.75420000       0.36430000
   127  H          0.21940000       0.74580000       0.86430000
   128  H          0.28060000       0.24580000       0.63570000
   129  C         -0.01453000       0.30242000       0.42243000
   130  C          0.51453000       0.80242000       0.07757000
   131  C          0.01453000       0.69758000       0.57757000
   132  C          0.48547000       0.19758000       0.92243000
