data_FOXREQ
_symmetry_space_group_name_H-M    'P1'
_symmetry_Int_Tables_number       1
loop_
_symmetry_equiv_pos_site_id
_symmetry_equiv_pos_as_xyz
1 x,y,z
_cell_length_a                   9.50174
_cell_length_b                   9.12074
_cell_length_c                   13.02126
_cell_angle_alpha                90.0
_cell_angle_beta                 97.4603
_cell_angle_gamma                90.0
loop_
_atom_site_label
_atom_site_type_symbol
_atom_site_fract_x
_atom_site_fract_y
_atom_site_fract_z
     1  O          0.57023000       0.74553000       0.90752000
     2  O          0.92977000       0.24553000       0.09248000
     3  O          0.42977000       0.25447000       0.09248000
     4  O          0.07023000       0.75447000       0.90752000
     5  O          0.63803000       0.97843000       0.93692000
     6  O          0.86197000       0.47843000       0.06308000
     7  O          0.36197000       0.02157000       0.06308000
     8  O          0.13803000       0.52157000       0.93692000
     9  O          0.70553000       0.23853000       0.75362000
    10  O          0.79447000       0.73853000       0.24638000
    11  O          0.29447000       0.76147000       0.24638000
    12  O          0.20553000       0.26147000       0.75362000
    13  O          0.78832000       0.00753000       0.76992000
    14  O          0.71168000       0.50753000       0.23008000
    15  O          0.21168000      -0.00753000       0.23008000
    16  O          0.28832000       0.49247000       0.76992000
    17  C          0.00694000       0.86314000       0.59483000
    18  C          0.49306000       0.36314000       0.40517000
    19  C         -0.00694000       0.13686000       0.40517000
    20  C          0.50694000       0.63686000       0.59483000
    21  C          0.12834000       0.87545000       0.63483000
    22  C          0.37166000       0.37545000       0.36517000
    23  C          0.87166000       0.12455000       0.36517000
    24  C          0.62834000       0.62455000       0.63483000
    25  C          0.27094000       0.92464000       0.66603000
    26  C          0.22906000       0.42464000       0.33397000
    27  C          0.72906000       0.07536000       0.33397000
    28  C          0.77094000       0.57536000       0.66603000
    29  C          0.35624000       0.86974000       0.75223000
    30  C          0.14376000       0.36974000       0.24777000
    31  C          0.64376000       0.13026000       0.24777000
    32  C          0.85624000       0.63026000       0.75223000
    33  C          0.49104000       0.92894000       0.78173000
    34  C          0.00896000       0.42894000       0.21827000
    35  C          0.50896000       0.07106000       0.21827000
    36  C         -0.00896000       0.57106000       0.78173000
    37  C          0.56944000       0.87145000       0.88063000
    38  C          0.93056000       0.37145000       0.11937000
    39  C          0.43056000       0.12855000       0.11937000
    40  C          0.06944000       0.62855000       0.88063000
    41  C          0.73074000       0.92974000       0.02793000
    42  C          0.76926000       0.42974000       0.97207000
    43  C          0.26926000       0.07026000       0.97207000
    44  C          0.23074000       0.57026000       0.02793000
    45  C          0.54424000       0.03904000       0.72423000
    46  C          0.95576000       0.53904000       0.27577000
    47  C          0.45576000       0.96096000       0.27577000
    48  C          0.04424000       0.46096000       0.72423000
    49  C          0.68574000       0.10775000       0.75043000
    50  C          0.81426000       0.60775000       0.24957000
    51  C          0.31426000       0.89225000       0.24957000
    52  C          0.18574000       0.39225000       0.75043000
    53  C          0.92744000       0.06545000       0.80734000
    54  C          0.57256000       0.56545000       0.19266000
    55  C          0.07256000       0.93455000       0.19266000
    56  C          0.42744000       0.43455000       0.80734000
    57  C          0.45924000       0.09285000       0.63673000
    58  C          0.04076000       0.59285000       0.36327000
    59  C          0.54076000       0.90715000       0.36327000
    60  C          0.95924000       0.40715000       0.63673000
    61  C          0.32404000       0.03894000       0.60653000
    62  C          0.17596000       0.53894000       0.39347000
    63  C          0.67596000       0.96106000       0.39347000
    64  C          0.82404000       0.46106000       0.60653000
    65  C          0.22754000       0.09745000       0.52143000
    66  C          0.27246000       0.59745000       0.47857000
    67  C          0.77246000       0.90255000       0.47857000
    68  C          0.72754000       0.40255000       0.52143000
    69  C          0.12444000       0.12605000       0.46183000
    70  C          0.37556000       0.62605000       0.53817000
    71  C          0.87556000       0.87395000       0.53817000
    72  C          0.62444000       0.37395000       0.46183000
    73  H          0.32290000       0.79190000       0.79110000
    74  H          0.17710000       0.29190000       0.20890000
    75  H          0.67710000       0.20810000       0.20890000
    76  H          0.82290000       0.70810000       0.79110000
    77  H          0.77630000       0.01490000       0.06410000
    78  H          0.72370000       0.51490000       0.93590000
    79  H          0.22370000      -0.01490000       0.93590000
    80  H          0.27630000       0.48510000       0.06410000
    81  H          0.80360000       0.86430000       0.00690000
    82  H          0.69640000       0.36430000      -0.00690000
    83  H          0.19640000       0.13570000      -0.00690000
    84  H          0.30360000       0.63570000       0.00690000
    85  H          0.67480000       0.87700000       0.07430000
    86  H          0.82520000       0.37700000       0.92570000
    87  H          0.32520000       0.12300000       0.92570000
    88  H          0.17480000       0.62300000       0.07430000
    89  H          0.49510000       0.16820000       0.59700000
    90  H          0.00490000       0.66820000       0.40300000
    91  H          0.50490000       0.83180000       0.40300000
    92  H         -0.00490000       0.33180000       0.59700000
    93  H         -0.00460000       0.98450000       0.81940000
    94  H          0.50460000       0.48450000       0.18060000
    95  H          0.00460000       0.01550000       0.18060000
    96  H          0.49540000       0.51550000       0.81940000
    97  H          0.92330000       0.11850000       0.87230000
    98  H          0.57670000       0.61850000       0.12770000
    99  H          0.07670000       0.88150000       0.12770000
   100  H          0.42330000       0.38150000       0.87230000
   101  H          0.95770000       0.13240000       0.75560000
   102  H          0.54230000       0.63240000       0.24440000
   103  H          0.04230000       0.86760000       0.24440000
   104  H          0.45770000       0.36760000       0.75560000
