data_FOXREQ01
_symmetry_space_group_name_H-M    'P1'
_symmetry_Int_Tables_number       1
loop_
_symmetry_equiv_pos_site_id
_symmetry_equiv_pos_as_xyz
1 x,y,z
_cell_length_a                   7.98392
_cell_length_b                   8.85363
_cell_length_c                   16.10965
_cell_angle_alpha                85.1702
_cell_angle_beta                 87.7582
_cell_angle_gamma                74.5832
loop_
_atom_site_label
_atom_site_type_symbol
_atom_site_fract_x
_atom_site_fract_y
_atom_site_fract_z
     1  O          0.24692000       0.96728000       0.74101110
     2  O          0.75308000       0.03272000       0.25898890
     3  O          0.43812000       0.73003810       0.76035110
     4  O          0.56188000       0.26996190       0.23964890
     5  O          0.62702000       0.83268000       0.87878100
     6  O          0.37298000       0.16732000       0.12121900
     7  O          0.88702000       0.70289810       0.82830100
     8  O          0.11298000       0.29710190       0.17169900
     9  O          0.46172000       0.71512000       0.23263110
    10  O          0.53828000       0.28488000       0.76736890
    11  O          0.34952000       0.64922000       0.11920100
    12  O          0.65048000       0.35078000       0.88079900
    13  O          0.07022000       0.92112000       0.13466100
    14  O          0.92978000       0.07888000       0.86533900
    15  O          0.84562000       0.82392000       0.10935100
    16  O          0.15438000       0.17608000       0.89064900
    17  C          0.64512000       0.30853000       0.46869150
    18  C          0.35488000       0.69147000       0.53130850
    19  C          0.62412000       0.21233000       0.52269150
    20  C          0.37588000       0.78767000       0.47730850
    21  C          0.64792000       0.10002000       0.59326150
    22  C          0.35208000       0.89998000       0.40673850
    23  C          0.51522000       0.04242000       0.63009140
    24  C          0.48478000       0.95758000       0.36990860
    25  C          0.54352000       0.94018000       0.70142140
    26  C          0.45648000       0.05982000       0.29857860
    27  C          0.39312000       0.88468000       0.73686140
    28  C          0.60688000       0.11532000       0.26313860
    29  C          0.30493000       0.67097000       0.80421170
    30  C          0.69507000       0.32903000       0.19578830
    31  C          0.70682000       0.89598000       0.73808140
    32  C          0.29318000       0.10402000       0.26191860
    33  C          0.73192000       0.80858000       0.82210140
    34  C          0.26808000       0.19142000       0.17789860
    35  C          0.92263000       0.61687000       0.90879150
    36  C          0.07737000       0.38313000       0.09120850
    37  C          0.84362000       0.94868000       0.70067140
    38  C          0.15638000       0.05132000       0.29932860
    39  C          0.81722000       0.05042000       0.62884140
    40  C          0.18278000       0.94958000       0.37115860
    41  C          0.95162000       0.11222000       0.58873140
    42  C          0.04838000       0.88778000       0.41126860
    43  C          0.03592000       0.18032000       0.54376140
    44  C          0.96408000       0.81968000       0.45623860
    45  C          0.09842000       0.27352000       0.48456140
    46  C          0.90158000       0.72648000       0.51543860
    47  C          0.12252000       0.36422000       0.42808140
    48  C          0.87748000       0.63578000       0.57191860
    49  C          0.09802000       0.47772000       0.35777140
    50  C          0.90198000       0.52228000       0.64222860
    51  C          0.23142000       0.52732000       0.31584140
    52  C          0.76858000       0.47268000       0.68415860
    53  C          0.19732000       0.63452000       0.24605140
    54  C          0.80268000       0.36548000       0.75394860
    55  C          0.34962000       0.67332000       0.20036150
    56  C          0.65038000       0.32668000       0.79963850
    57  C          0.47563000       0.70753000       0.06819170
    58  C          0.52437000       0.29247000       0.93180830
    59  C          0.02702000       0.69802000       0.21891140
    60  C          0.97298000       0.30198000       0.78108860
    61  C          0.98752000       0.82582000       0.15069140
    62  C          0.01248000       0.17418000       0.84930860
    63  C          0.77813000       0.95773000       0.05081160
    64  C          0.22187000       0.04227000       0.94918840
    65  C          0.89182000       0.65092000       0.26072140
    66  C          0.10818000       0.34908000       0.73927860
    67  C          0.92492000       0.53922000       0.32837140
    68  C          0.07508000       0.46078000       0.67162860
    69  C          0.78992000       0.48022000       0.36995150
    70  C          0.21008000       0.51978000       0.63004850
    71  C          0.70642000       0.40692000       0.41240150
    72  C          0.29358000       0.59308000       0.58759850
    73  H          0.40320000       0.07330000       0.60610000
    74  H          0.59680000       0.92670000       0.39390000
    75  H          0.34960000       0.55800000       0.81860000
    76  H          0.65040000       0.44200000       0.18140000
    77  H          0.20360000       0.68970000       0.76860000
    78  H          0.79640000       0.31030000       0.23140000
    79  H          0.27090000       0.72540000       0.85520000
    80  H          0.72910000       0.27460000       0.14480000
    81  H          0.03820000       0.54290000       0.90740000
    82  H          0.96180000       0.45710000       0.09260000
    83  H          0.83500000       0.55890000       0.92220000
    84  H          0.16500000       0.44110000       0.07780000
    85  H          0.91880000       0.69070000       0.95130000
    86  H          0.08120000       0.30930000       0.04870000
    87  H          0.95570000       0.91490000       0.72440000
    88  H          0.04430000       0.08510000       0.27560000
    89  H          0.34720000       0.48790000       0.33490000
    90  H          0.65280000       0.51210000       0.66510000
    91  H          0.46690000       0.68520000       0.01020000
    92  H          0.53310000       0.31480000       0.98980000
    93  H          0.59280000       0.65540000       0.08820000
    94  H          0.40720000       0.34460000       0.91180000
    95  H          0.45250000       0.82120000       0.07170000
    96  H          0.54750000       0.17880000       0.92830000
    97  H          0.67510000       0.94450000       0.02420000
    98  H          0.32490000       0.05550000       0.97580000
    99  H          0.86710000       0.96530000       0.00820000
   100  H          0.13290000       0.03470000      -0.00820000
   101  H          0.74640000       0.05390000       0.08040000
   102  H          0.25360000       0.94610000       0.91960000
   103  H          0.77570000       0.69530000       0.24300000
   104  H          0.22430000       0.30470000       0.75700000
