data_FOXREQ02
_symmetry_space_group_name_H-M    'P1'
_symmetry_Int_Tables_number       1
loop_
_symmetry_equiv_pos_site_id
_symmetry_equiv_pos_as_xyz
1 x,y,z
_cell_length_a                   7.15813
_cell_length_b                   12.72214
_cell_length_c                   12.08744
_cell_angle_alpha                90.0
_cell_angle_beta                 97.6402
_cell_angle_gamma                90.0
loop_
_atom_site_label
_atom_site_type_symbol
_atom_site_fract_x
_atom_site_fract_y
_atom_site_fract_z
     1  O          0.07472000       0.93654890       0.13785130
     2  O          0.42528000       0.43654890       0.86214870
     3  O          0.92528000       0.06345110       0.86214870
     4  O          0.57472000       0.56345110       0.13785130
     5  O          0.25152000       0.95318900       0.30376110
     6  O          0.24848000       0.45318900       0.69623890
     7  O          0.74848000       0.04681100       0.69623890
     8  O          0.75152000       0.54681100       0.30376110
     9  O          0.45562000       0.14111120       0.45281110
    10  O          0.04438000       0.64111120       0.54718890
    11  O          0.54438000       0.85888880       0.54718890
    12  O          0.95562000       0.35888880       0.45281110
    13  O          0.15543190       0.09985110       0.46774110
    14  O          0.34456810       0.59985110       0.53225890
    15  O          0.84456810       0.90014890       0.53225890
    16  O          0.65543190       0.40014890       0.46774110
    17  C          0.94007000       0.38125150       0.92402840
    18  C          0.55993000       0.88125150       0.07597160
    19  C          0.05993000       0.61874850       0.07597160
    20  C          0.44007000       0.11874850       0.92402840
    21  C         -0.00493000       0.31555150      -0.00848160
    22  C          0.50493000       0.81555150       0.00848160
    23  C          0.00493000       0.68444850       0.00848160
    24  C          0.49507000       0.18444850      -0.00848160
    25  C          0.07192000       0.26291150       0.09287160
    26  C          0.42808000       0.76291150       0.90712840
    27  C          0.92808000       0.73708850       0.90712840
    28  C          0.57192000       0.23708850       0.09287160
    29  C          0.07922000       0.15441150       0.10570160
    30  C          0.42078000       0.65441150       0.89429840
    31  C          0.92078000       0.84558850       0.89429840
    32  C          0.57922000       0.34558850       0.10570160
    33  C          0.15042000       0.10865150       0.20717160
    34  C          0.34958000       0.60865150       0.79282840
    35  C          0.84958000       0.89134850       0.79282840
    36  C          0.65042000       0.39134850       0.20717160
    37  C          0.15302000      -0.00884160       0.21078160
    38  C          0.34698000       0.49115840       0.78921840
    39  C          0.84698000       0.00884160       0.78921840
    40  C          0.65302000       0.50884160       0.21078160
    41  C          0.25523000       0.83943850       0.31128180
    42  C          0.24477000       0.33943850       0.68871820
    43  C          0.74477000       0.16056150       0.68871820
    44  C          0.75523000       0.66056150       0.31128180
    45  C          0.21812000       0.17297150       0.29810160
    46  C          0.28188000       0.67297150       0.70189840
    47  C          0.78188000       0.82702850       0.70189840
    48  C          0.71812000       0.32702850       0.29810160
    49  C          0.29253000       0.13460150       0.41254160
    50  C          0.20747000       0.63460150       0.58745840
    51  C          0.70747000       0.86539850       0.58745840
    52  C          0.79253000       0.36539850       0.41254160
    53  C          0.21853000       0.06184170       0.57984170
    54  C          0.28147000       0.56184170       0.42015830
    55  C          0.78147000       0.93815830       0.42015830
    56  C          0.71853000       0.43815830       0.57984170
    57  C          0.21732000       0.28176150       0.28523150
    58  C          0.28268000       0.78176150       0.71476850
    59  C          0.78268000       0.71823850       0.71476850
    60  C          0.71732000       0.21823850       0.28523150
    61  C          0.14442000       0.32824150       0.18447160
    62  C          0.35558000       0.82824150       0.81552840
    63  C          0.85558000       0.67175850       0.81552840
    64  C          0.64442000       0.17175850       0.18447160
    65  C          0.13403000       0.43992150       0.16945160
    66  C          0.36597000       0.93992150       0.83054840
    67  C          0.86597000       0.56007850       0.83054840
    68  C          0.63403000       0.06007850       0.16945160
    69  C          0.10712000       0.52786150       0.13476150
    70  C          0.39288000       0.02786150       0.86523850
    71  C          0.89288000       0.47213850       0.86523850
    72  C          0.60712000       0.97213850       0.13476150
    73  H          0.03490000       0.11070000       0.04410000
    74  H          0.46510000       0.61070000       0.95590000
    75  H          0.96510000       0.88930000       0.95590000
    76  H          0.53490000       0.38930000       0.04410000
    77  H          0.33000000       0.81820000       0.38160000
    78  H          0.17000000       0.31820000       0.61840000
    79  H          0.67000000       0.18180000       0.61840000
    80  H          0.83000000       0.68180000       0.38160000
    81  H          0.31200000       0.81040000       0.24840000
    82  H          0.18800000       0.31040000       0.75160000
    83  H          0.68800000       0.18960000       0.75160000
    84  H          0.81200000       0.68960000       0.24840000
    85  H          0.12630000       0.81280000       0.30900000
    86  H          0.37370000       0.31280000       0.69100000
    87  H          0.87370000       0.18720000       0.69100000
    88  H          0.62630000       0.68720000       0.30900000
    89  H          0.26720000       0.32490000       0.34620000
    90  H          0.23280000       0.82490000       0.65380000
    91  H          0.73280000       0.67510000       0.65380000
    92  H          0.76720000       0.17510000       0.34620000
    93  H          0.10950000       0.03790000       0.61430000
    94  H          0.39050000       0.53790000       0.38570000
    95  H          0.89050000       0.96210000       0.38570000
    96  H          0.60950000       0.46210000       0.61430000
    97  H          0.28220000       0.11880000       0.62460000
    98  H          0.21780000       0.61880000       0.37540000
    99  H          0.71780000       0.88120000       0.37540000
   100  H          0.78220000       0.38120000       0.62460000
   101  H          0.30620000       0.00320000       0.57620000
   102  H          0.19380000       0.50320000       0.42380000
   103  H          0.69380000      -0.00320000       0.42380000
   104  H          0.80620000       0.49680000       0.57620000
