data_FPAMCA11
_symmetry_space_group_name_H-M    'P1'
_symmetry_Int_Tables_number       1
loop_
_symmetry_equiv_pos_site_id
_symmetry_equiv_pos_as_xyz
1 x,y,z
_cell_length_a                   12.5234
_cell_length_b                   7.8686
_cell_length_c                   12.8743
_cell_angle_alpha                90.0
_cell_angle_beta                 95.22
_cell_angle_gamma                90.0
loop_
_atom_site_label
_atom_site_type_symbol
_atom_site_fract_x
_atom_site_fract_y
_atom_site_fract_z
     1  C          0.32020000       0.72460000       0.23380000
     2  C          0.67980000       0.22460000       0.26620000
     3  C          0.67980000       0.27540000       0.76620000
     4  C          0.32020000       0.77540000       0.73380000
     5  C          0.39010000       0.78060000       0.32010000
     6  C          0.60990000       0.28060000       0.17990000
     7  C          0.60990000       0.21940000       0.67990000
     8  C          0.39010000       0.71940000       0.82010000
     9  C          0.41850000       0.95270000       0.32760000
    10  C          0.58150000       0.45270000       0.17240000
    11  C          0.58150000       0.04730000       0.67240000
    12  C          0.41850000       0.54730000       0.82760000
    13  C          0.37990000       0.06940000       0.25380000
    14  C          0.62010000       0.56940000       0.24620000
    15  C          0.62010000       0.93060000       0.74620000
    16  C          0.37990000       0.43060000       0.75380000
    17  C          0.31190000       0.01460000       0.17040000
    18  C          0.68810000       0.51460000       0.32960000
    19  C          0.68810000      -0.01460000       0.82960000
    20  C          0.31190000       0.48540000       0.67040000
    21  C          0.28210000       0.84660000       0.15970000
    22  C          0.71790000       0.34660000       0.34030000
    23  C          0.71790000       0.15340000       0.84030000
    24  C          0.28210000       0.65340000       0.65970000
    25  N          0.29050000       0.55640000       0.22530000
    26  N          0.70950000       0.05640000       0.27470000
    27  N          0.70950000       0.44360000       0.77470000
    28  N          0.29050000       0.94360000       0.72530000
    29  C          0.43260000       0.66190000       0.40090000
    30  C          0.56740000       0.16190000       0.09910000
    31  C          0.56740000       0.33810000       0.59910000
    32  C          0.43260000       0.83810000       0.90090000
    33  O          0.40840000       0.51010000       0.40420000
    34  O          0.59160000       0.01010000       0.09580000
    35  O          0.59160000       0.48990000       0.59580000
    36  O          0.40840000      -0.01010000       0.90420000
    37  O          0.50190000       0.72930000       0.47260000
    38  O          0.49810000       0.22930000       0.02740000
    39  O          0.49810000       0.27070000       0.52740000
    40  O          0.50190000       0.77070000       0.97260000
    41  C          0.22350000       0.48140000       0.14470000
    42  C          0.77650000       0.98140000       0.35530000
    43  C          0.77650000       0.51860000       0.85530000
    44  C          0.22350000       0.01860000       0.64470000
    45  C          0.13980000       0.38050000       0.17160000
    46  C          0.86020000       0.88050000       0.32840000
    47  C          0.86020000       0.61950000       0.82840000
    48  C          0.13980000       0.11950000       0.67160000
    49  C          0.07500000       0.29800000       0.09540000
    50  C          0.92500000       0.79800000       0.40460000
    51  C          0.92500000       0.70200000       0.90460000
    52  C          0.07500000       0.20200000       0.59540000
    53  C          0.09180000       0.31640000      -0.00860000
    54  C          0.90820000       0.81640000       0.50860000
    55  C          0.90820000       0.68360000       0.00860000
    56  C          0.09180000       0.18360000       0.49140000
    57  C          0.17610000       0.41520000       0.96520000
    58  C          0.82390000       0.91520000       0.53480000
    59  C          0.82390000       0.58480000       0.03480000
    60  C          0.17610000       0.08480000       0.46520000
    61  C          0.24210000       0.49640000       0.04040000
    62  C          0.75790000      -0.00360000       0.45960000
    63  C          0.75790000       0.50360000       0.95960000
    64  C          0.24210000       0.00360000       0.54040000
    65  C         -0.01190000       0.18460000       0.12790000
    66  C          0.01190000       0.68460000       0.37210000
    67  C          0.01190000       0.81540000       0.87210000
    68  C         -0.01190000       0.31540000       0.62790000
    69  F          0.91380000       0.14870000       0.05230000
    70  F          0.08620000       0.64870000       0.44770000
    71  F          0.08620000       0.85130000       0.94770000
    72  F          0.91380000       0.35130000       0.55230000
    73  F          0.93810000       0.24750000       0.20350000
    74  F          0.06190000       0.74750000       0.29650000
    75  F          0.06190000       0.75250000       0.79650000
    76  F          0.93810000       0.25250000       0.70350000
    77  F          0.02490000       0.03350000       0.15740000
    78  F          0.97510000       0.53350000       0.34260000
    79  F          0.97510000       0.96650000       0.84260000
    80  F          0.02490000       0.46650000       0.65740000
    81  H          0.46400000      -0.01300000       0.38900000
    82  H          0.53600000       0.48700000       0.11100000
    83  H          0.53600000       0.01300000       0.61100000
    84  H          0.46400000       0.51300000       0.88900000
    85  H          0.40000000       0.19300000       0.26200000
    86  H          0.60000000       0.69300000       0.23800000
    87  H          0.60000000       0.80700000       0.73800000
    88  H          0.40000000       0.30700000       0.76200000
    89  H          0.27700000       0.08800000       0.11800000
    90  H          0.72300000       0.58800000       0.38200000
    91  H          0.72300000       0.91200000       0.88200000
    92  H          0.27700000       0.41200000       0.61800000
    93  H          0.23500000       0.83200000       0.09600000
    94  H          0.76500000       0.33200000       0.40400000
    95  H          0.76500000       0.16800000       0.90400000
    96  H          0.23500000       0.66800000       0.59600000
    97  H          0.52600000       0.65500000       0.51800000
    98  H          0.47400000       0.15500000       0.98200000
    99  H          0.47400000       0.34500000       0.48200000
   100  H          0.52600000       0.84500000       0.01800000
   101  H          0.29800000       0.50900000       0.28400000
   102  H          0.70200000       0.00900000       0.21600000
   103  H          0.70200000       0.49100000       0.71600000
   104  H          0.29800000      -0.00900000       0.78400000
   105  H          0.13300000       0.36100000       0.24200000
   106  H          0.86700000       0.86100000       0.25800000
   107  H          0.86700000       0.63900000       0.75800000
   108  H          0.13300000       0.13900000       0.74200000
   109  H          0.04600000       0.26600000       0.94500000
   110  H          0.95400000       0.76600000       0.55500000
   111  H          0.95400000       0.73400000       0.05500000
   112  H          0.04600000       0.23400000       0.44500000
   113  H          0.17900000       0.42500000       0.89600000
   114  H          0.82100000       0.92500000       0.60400000
   115  H          0.82100000       0.57500000       0.10400000
   116  H          0.17900000       0.07500000       0.39600000
   117  H          0.30000000       0.56100000       0.02500000
   118  H          0.70000000       0.06100000       0.47500000
   119  H          0.70000000       0.43900000       0.97500000
   120  H          0.30000000       0.93900000       0.52500000
