data_FPAMCA17
_symmetry_space_group_name_H-M    'P1'
_symmetry_Int_Tables_number       1
loop_
_symmetry_equiv_pos_site_id
_symmetry_equiv_pos_as_xyz
1 x,y,z
_cell_length_a                   10.88138
_cell_length_b                   10.23747
_cell_length_c                   11.74871
_cell_angle_alpha                90.0
_cell_angle_beta                 111.3188
_cell_angle_gamma                90.0
loop_
_atom_site_label
_atom_site_type_symbol
_atom_site_fract_x
_atom_site_fract_y
_atom_site_fract_z
     1  F          0.32572000       0.25442000       0.33972000
     2  F          0.67428000       0.75442000       0.16028000
     3  F          0.67428000       0.74558000       0.66028000
     4  F          0.32572000       0.24558000       0.83972000
     5  F          0.45892000       0.41712000       0.38492000
     6  F          0.54108000       0.91712000       0.11508000
     7  F          0.54108000       0.58288000       0.61508000
     8  F          0.45892000       0.08288000       0.88492000
     9  F          0.45173000       0.28783000       0.23782000
    10  F          0.54827000       0.78783000       0.26218000
    11  F          0.54827000       0.71217000       0.76218000
    12  F          0.45173000       0.21217000       0.73782000
    13  O          0.02893000       0.35423000       0.09823000
    14  O          0.97107000       0.85423000       0.40177000
    15  O          0.97107000       0.64577000       0.90177000
    16  O          0.02893000       0.14577000       0.59823000
    17  H          0.04740000       0.44750000       0.09440000
    18  H          0.95260000       0.94750000       0.40560000
    19  H          0.95260000       0.55250000       0.90560000
    20  H          0.04740000       0.05250000       0.59440000
    21  O          0.92123000       0.39393000       0.89963000
    22  O          0.07877000       0.89393000       0.60037000
    23  O          0.07877000       0.60607000       0.10037000
    24  O          0.92123000       0.10607000       0.39963000
    25  N          0.77023000       0.20783000       0.76233000
    26  N          0.22977000       0.70783000       0.73767000
    27  N          0.22977000       0.79217000       0.23767000
    28  N          0.77023000       0.29217000       0.26233000
    29  H          0.79170000       0.29110000       0.77060000
    30  H          0.20830000       0.79110000       0.72940000
    31  H          0.20830000       0.70890000       0.22940000
    32  H          0.79170000       0.20890000       0.27060000
    33  C          0.70504000       0.16244000       0.64214000
    34  C          0.29496000       0.66244000       0.85786000
    35  C          0.29496000       0.83756000       0.35786000
    36  C          0.70504000       0.33756000       0.14214000
    37  C          0.61204000       0.24384000       0.56064000
    38  C          0.38796000       0.74384000       0.93936000
    39  C          0.38796000       0.75616000       0.43936000
    40  C          0.61204000       0.25616000       0.06064000
    41  H          0.58930000       0.32450000       0.58770000
    42  H          0.41070000       0.82450000       0.91230000
    43  H          0.41070000       0.67550000       0.41230000
    44  H          0.58930000       0.17550000       0.08770000
    45  C          0.89104000       0.18814000       0.98134000
    46  C          0.10896000       0.68814000       0.51866000
    47  C          0.10896000       0.81186000       0.01866000
    48  C          0.89104000       0.31186000       0.48134000
    49  C          0.80404000       0.13534000       0.86844000
    50  C          0.19596000       0.63534000       0.63156000
    51  C          0.19596000       0.86466000       0.13156000
    52  C          0.80404000       0.36466000       0.36844000
    53  C          0.78224000       0.94126000       0.97704000
    54  C          0.21776000       0.44126000       0.52296000
    55  C          0.21776000       0.05874000       0.02296000
    56  C          0.78224000       0.55874000       0.47704000
    57  H          0.74440000       0.85740000       0.97550000
    58  H          0.25560000       0.35740000       0.52450000
    59  H          0.25560000       0.14260000       0.02450000
    60  H          0.74440000       0.64260000       0.47550000
    61  C          0.44904000       0.29094000       0.35174000
    62  C          0.55096000       0.79094000       0.14826000
    63  C          0.55096000       0.70906000       0.64826000
    64  C          0.44904000       0.20906000       0.85174000
    65  C          0.67414000       0.00664000       0.48014000
    66  C          0.32586000       0.50664000       0.01986000
    67  C          0.32586000      -0.00664000       0.51986000
    68  C          0.67414000       0.49336000       0.98014000
    69  H          0.69410000       0.92460000       0.45320000
    70  H          0.30590000       0.42460000       0.04680000
    71  H          0.30590000       0.07540000       0.54680000
    72  H          0.69410000       0.57540000       0.95320000
    73  C          0.58304000       0.08804000       0.39854000
    74  C          0.41696000       0.58804000       0.10146000
    75  C          0.41696000       0.91196000       0.60146000
    76  C          0.58304000       0.41196000       0.89854000
    77  H          0.54190000       0.06310000       0.31540000
    78  H          0.45810000       0.56310000       0.18460000
    79  H          0.45810000       0.93690000       0.68460000
    80  H          0.54190000       0.43690000       0.81540000
    81  C          0.55204000       0.20604000       0.43854000
    82  C          0.44796000       0.70604000       0.06146000
    83  C          0.44796000       0.79396000       0.56146000
    84  C          0.55204000       0.29396000       0.93854000
    85  C          0.86814000      -0.00784000       0.08724000
    86  C          0.13186000       0.49216000       0.41276000
    87  C          0.13186000       0.00784000       0.91276000
    88  C          0.86814000       0.50784000       0.58724000
    89  H          0.89020000       0.94310000       0.16060000
    90  H          0.10980000       0.44310000       0.33940000
    91  H          0.10980000       0.05690000       0.83940000
    92  H          0.89020000       0.55690000       0.66060000
    93  C          0.94724000       0.31934000      -0.01086000
    94  C          0.05276000       0.81934000       0.51086000
    95  C          0.05276000       0.68066000       0.01086000
    96  C          0.94724000       0.18066000       0.48914000
    97  C          0.73654000       0.04384000       0.60074000
    98  C          0.26346000       0.54384000       0.89926000
    99  C          0.26346000       0.95616000       0.39926000
   100  C          0.73654000       0.45616000       0.10074000
   101  H          0.80110000      -0.01160000       0.65560000
   102  H          0.19890000       0.48840000       0.84440000
   103  H          0.19890000       0.01160000       0.34440000
   104  H          0.80110000       0.51160000       0.15560000
   105  C          0.75144000       0.01174000       0.87004000
   106  C          0.24856000       0.51174000       0.62996000
   107  C          0.24856000      -0.01174000       0.12996000
   108  C          0.75144000       0.48826000       0.37004000
   109  H          0.69310000       0.97490000       0.79580000
   110  H          0.30690000       0.47490000       0.70420000
   111  H          0.30690000       0.02510000       0.20420000
   112  H          0.69310000       0.52510000       0.29580000
   113  C          0.92014000       0.11424000       0.08804000
   114  C          0.07986000       0.61424000       0.41196000
   115  C          0.07986000       0.88576000       0.91196000
   116  C          0.92014000       0.38576000       0.58804000
   117  H          0.97770000       0.14970000       0.16320000
   118  H          0.02230000       0.64970000       0.33680000
   119  H          0.02230000       0.85030000       0.83680000
   120  H          0.97770000       0.35030000       0.66320000
