data_FPAMCA12
_symmetry_space_group_name_H-M    'P1'
_symmetry_Int_Tables_number       1
loop_
_symmetry_equiv_pos_site_id
_symmetry_equiv_pos_as_xyz
1 x,y,z
_cell_length_a                   14.968714
_cell_length_b                   20.6412
_cell_length_c                   7.94868
_cell_angle_alpha                90.0
_cell_angle_beta                 98.3167
_cell_angle_gamma                90.0
loop_
_atom_site_label
_atom_site_type_symbol
_atom_site_fract_x
_atom_site_fract_y
_atom_site_fract_z
     1  F          0.61823000       0.95887810      -0.00105000
     2  F          0.38177000       0.45887810       0.50105000
     3  F          0.38177000       0.04112190       0.00105000
     4  F          0.61823000       0.54112190       0.49895000
     5  F          0.61083000       0.86426820       0.10385000
     6  F          0.38917000       0.36426820       0.39615000
     7  F          0.38917000       0.13573180       0.89615000
     8  F          0.61083000       0.63573180       0.60385000
     9  F          0.49333000       0.92363810       0.06495000
    10  F          0.50667000       0.42363810       0.43505000
    11  F          0.50667000       0.07636190       0.93505000
    12  F          0.49333000       0.57636190       0.56495000
    13  O          0.80843000       0.18052000       0.66116000
    14  O          0.19157000       0.68052000       0.83884000
    15  O          0.19157000       0.81948000       0.33884000
    16  O          0.80843000       0.31948000       0.16116000
    17  O          0.80683000       0.28512000       0.59836000
    18  O          0.19317000       0.78512000       0.90164000
    19  O          0.19317000       0.71488000       0.40164000
    20  O          0.80683000       0.21488000       0.09836000
    21  H          0.84120000       0.28930000       0.69230000
    22  H          0.15880000       0.78930000       0.80770000
    23  H          0.15880000       0.71070000       0.30770000
    24  H          0.84120000       0.21070000       0.19230000
    25  N          0.67464000       0.10783000       0.50597000
    26  N          0.32536000       0.60783000      -0.00597000
    27  N          0.32536000       0.89217000       0.49403000
    28  N          0.67464000       0.39217000       0.00597000
    29  H          0.72041900       0.11330000       0.58840000
    30  H          0.27958100       0.61330000       0.91160000
    31  H          0.27958100       0.88670000       0.41160000
    32  H          0.72041900       0.38670000       0.08840000
    33  C          0.77005000       0.22663000       0.57939000
    34  C          0.22995000       0.72663000       0.92061000
    35  C          0.22995000       0.77337000       0.42061000
    36  C          0.77005000       0.27337000       0.07939000
    37  C          0.68614000       0.22303000       0.46118000
    38  C          0.31386000       0.72303000       0.03882000
    39  C          0.31386000       0.77697000       0.53882000
    40  C          0.68614000       0.27697000       0.96118000
    41  C          0.64884000       0.28053000       0.38799000
    42  C          0.35116000       0.78053000       0.11201000
    43  C          0.35116000       0.71947000       0.61201000
    44  C          0.64884000       0.21947000       0.88799000
    45  H          0.67890000       0.32060000       0.41440000
    46  H          0.32110000       0.82060000       0.08560000
    47  H          0.32110000       0.67940000       0.58560000
    48  H          0.67890000       0.17940000       0.91440000
    49  C          0.56935000       0.27933000       0.27859000
    50  C          0.43065000       0.77933000       0.22141000
    51  C          0.43065000       0.72067000       0.72141000
    52  C          0.56935000       0.22067000       0.77859000
    53  H          0.54350000       0.31830000       0.22990000
    54  H          0.45650000       0.81830000       0.27010000
    55  H          0.45650000       0.68170000       0.77010000
    56  H          0.54350000       0.18170000       0.72990000
    57  C          0.52685000       0.22033000       0.23958000
    58  C          0.47315000       0.72033000       0.26042000
    59  C          0.47315000       0.77967000       0.76042000
    60  C          0.52685000       0.27967000       0.73958000
    61  H          0.47210000       0.21910000       0.16240000
    62  H          0.52790000       0.71910000       0.33760000
    63  H          0.52790000       0.78090000       0.83760000
    64  H          0.47210000       0.28090000       0.66240000
    65  C          0.56275000       0.16343000       0.31069000
    66  C          0.43725000       0.66343000       0.18931000
    67  C          0.43725000       0.83657000       0.68931000
    68  C          0.56275000       0.33657000       0.81069000
    69  H          0.53270000       0.12340000       0.28200000
    70  H          0.46730000       0.62340000       0.21800000
    71  H          0.46730000       0.87660000       0.71800000
    72  H          0.53270000       0.37660000       0.78200000
    73  C          0.64234000       0.16423000       0.42368000
    74  C          0.35766000       0.66423000       0.07632000
    75  C          0.35766000       0.83577000       0.57632000
    76  C          0.64234000       0.33577000       0.92368000
    77  C          0.64614000       0.04203000       0.47599000
    78  C          0.35386000       0.54203000       0.02401000
    79  C          0.35386000       0.95797000       0.52401000
    80  C          0.64614000       0.45797000       0.97599000
    81  C          0.62554000       0.01753000       0.31158000
    82  C          0.37446000       0.51753000       0.18842000
    83  C          0.37446000       0.98247000       0.68842000
    84  C          0.62554000       0.48247000       0.81158000
    85  H          0.62480000       0.04480000       0.21520000
    86  H          0.37520000       0.54480000       0.28480000
    87  H          0.37520000       0.95520000       0.78480000
    88  H          0.62480000       0.45520000       0.71520000
    89  C          0.60594000       0.95167000       0.29269000
    90  C          0.39406000       0.45167000       0.20731000
    91  C          0.39406000       0.04833000       0.70731000
    92  C          0.60594000       0.54833000       0.79269000
    93  C          0.60604000       0.91077000       0.42978000
    94  C          0.39396000       0.41077000       0.07022000
    95  C          0.39396000       0.08923000       0.57022000
    96  C          0.60604000       0.58923000       0.92978000
    97  H          0.59320000       0.86600000       0.41340000
    98  H          0.40680000       0.36600000       0.08660000
    99  H          0.40680000       0.13400000       0.58660000
   100  H          0.59320000       0.63400000       0.91340000
   101  C          0.62524000       0.93677000       0.59249000
   102  C          0.37476000       0.43677000       0.90751000
   103  C          0.37476000       0.06323000       0.40751000
   104  C          0.62524000       0.56323000       0.09249000
   105  H          0.62450000       0.90960000       0.68860000
   106  H          0.37550000       0.40960000       0.81140000
   107  H          0.37550000       0.09040000       0.31140000
   108  H          0.62450000       0.59040000       0.18860000
   109  C          0.64544000       0.00163000       0.61549000
   110  C          0.35456000       0.50163000       0.88451000
   111  C          0.35456000      -0.00163000       0.38451000
   112  C          0.64544000       0.49837000       0.11549000
   113  H          0.65880000       0.01870000       0.72720000
   114  H          0.34120000       0.51870000       0.77280000
   115  H          0.34120000       0.98130000       0.27280000
   116  H          0.65880000       0.48130000       0.22720000
   117  C          0.58265000       0.92567000       0.11749000
   118  C          0.41735000       0.42567000       0.38251000
   119  C          0.41735000       0.07433000       0.88251000
   120  C          0.58265000       0.57433000       0.61749000
   121  F          0.18153000       0.47341180       0.55365000
   122  F          0.81847000       0.97341180       0.94635000
   123  F          0.81847000       0.52658820       0.44635000
   124  F          0.18153000       0.02658820       0.05365000
   125  F          0.22803000       0.56618180       0.48695000
   126  F          0.77197000       0.06618180       0.01305000
   127  F          0.77197000       0.43381820       0.51305000
   128  F          0.22803000       0.93381820      -0.01305000
   129  F          0.08953000       0.55212000       0.50545000
   130  F          0.91047000       0.05212000      -0.00545000
   131  F          0.91047000       0.44788000       0.49455000
   132  F          0.08953000       0.94788000       0.00545000
   133  O          0.96443000       0.18172000       0.86696000
   134  O          0.03557000       0.68172000       0.63304000
   135  O          0.03557000       0.81828000       0.13304000
   136  O          0.96443000       0.31828000       0.36696000
   137  H          0.91301500       0.18630000       0.81360000
   138  H          0.08698500       0.68630000       0.68640000
   139  H          0.08698500       0.81370000       0.18640000
   140  H          0.91301500       0.31370000       0.31360000
   141  O          0.94903000       0.28812000       0.83816000
   142  O          0.05097000       0.78812000       0.66184000
   143  O          0.05097000       0.71188000       0.16184000
   144  O          0.94903000       0.21188000       0.33816000
   145  N          0.07944000       0.36212000      -0.00203000
   146  N          0.92056000       0.86212000       0.50203000
   147  N          0.92056000       0.63788000       0.00203000
   148  N          0.07944000       0.13788000       0.49797000
   149  H          0.02611600       0.35430000       0.94070000
   150  H          0.97388400       0.85430000       0.55930000
   151  H          0.97388400       0.64570000       0.05930000
   152  H          0.02611600       0.14570000       0.44070000
   153  C         -0.00725000       0.24093000       0.90319000
   154  C          0.00725000       0.74093000       0.59681000
   155  C          0.00725000       0.75907000       0.09681000
   156  C         -0.00725000       0.25907000       0.40319000
   157  C          0.07775000       0.24453000       0.01858000
   158  C          0.92225000       0.74453000       0.48142000
   159  C          0.92225000       0.75547000       0.98142000
   160  C          0.07775000       0.25547000       0.51858000
   161  C          0.11885000       0.18853000       0.08479000
   162  C          0.88115000       0.68853000       0.41521000
   163  C          0.88115000       0.81147000       0.91521000
   164  C          0.11885000       0.31147000       0.58479000
   165  H          0.08940000       0.14810000       0.05890000
   166  H          0.91060000       0.64810000       0.44110000
   167  H          0.91060000       0.85190000       0.94110000
   168  H          0.08940000       0.35190000       0.55890000
   169  C          0.20185000       0.18943000       0.18808000
   170  C          0.79815000       0.68943000       0.31192000
   171  C          0.79815000       0.81057000       0.81192000
   172  C          0.20185000       0.31057000       0.68808000
   173  H          0.22980000       0.15040000       0.23220000
   174  H          0.77020000       0.65040000       0.26780000
   175  H          0.77020000       0.84960000       0.76780000
   176  H          0.22980000       0.34960000       0.73220000
   177  C          0.24225000       0.24883000       0.22438000
   178  C          0.75775000       0.74883000       0.27562000
   179  C          0.75775000       0.75117000       0.77562000
   180  C          0.24225000       0.25117000       0.72438000
   181  H          0.29950000       0.25010000       0.29360000
   182  H          0.70050000       0.75010000       0.20640000
   183  H          0.70050000       0.74990000       0.70640000
   184  H          0.29950000       0.24990000       0.79360000
   185  C          0.20354000       0.30563000       0.16528000
   186  C          0.79646000       0.80563000       0.33472000
   187  C          0.79646000       0.69437000       0.83472000
   188  C          0.20354000       0.19437000       0.66528000
   189  H          0.23360000       0.34540000       0.19400000
   190  H          0.76640000       0.84540000       0.30600000
   191  H          0.76640000       0.65460000       0.80600000
   192  H          0.23360000       0.15460000       0.69400000
   193  C          0.11924000       0.30523000       0.06158000
   194  C          0.88076000       0.80523000       0.43842000
   195  C          0.88076000       0.69477000       0.93842000
   196  C          0.11924000       0.19477000       0.56158000
   197  C          0.10334000       0.42663000       0.05209000
   198  C          0.89666000       0.92663000       0.44791000
   199  C          0.89666000       0.57337000       0.94791000
   200  C          0.10334000       0.07337000       0.55209000
   201  C          0.12344000       0.44293000       0.22328000
   202  C          0.87656000       0.94293000       0.27672000
   203  C          0.87656000       0.55707000       0.77672000
   204  C          0.12344000       0.05707000       0.72328000
   205  H          0.12420000       0.41060000       0.30850000
   206  H          0.87580000       0.91060000       0.19150000
   207  H          0.87580000       0.58940000       0.69150000
   208  H          0.12420000       0.08940000       0.80850000
   209  C          0.14204000       0.50663000       0.26739000
   210  C          0.85796000       0.00663000       0.23261000
   211  C          0.85796000       0.49337000       0.73261000
   212  C          0.14204000      -0.00663000       0.76739000
   213  C          0.13715000       0.55543000       0.14749000
   214  C          0.86285000       0.05543000       0.35251000
   215  C          0.86285000       0.44457000       0.85251000
   216  C          0.13715000       0.94457000       0.64749000
   217  H          0.14790000       0.59920000       0.18100000
   218  H          0.85210000       0.09920000       0.31900000
   219  H          0.85210000       0.40080000       0.81900000
   220  H          0.14790000       0.90080000       0.68100000
   221  C          0.11574000       0.53913000       0.97579000
   222  C          0.88426000       0.03913000       0.52421000
   223  C          0.88426000       0.46087000       0.02421000
   224  C          0.11574000       0.96087000       0.47579000
   225  H          0.11300000       0.57190000       0.89140000
   226  H          0.88700000       0.07190000       0.60860000
   227  H          0.88700000       0.42810000       0.10860000
   228  H          0.11300000       0.92810000       0.39140000
   229  C          0.09844000       0.47503000       0.92769000
   230  C          0.90156000       0.97503000       0.57231000
   231  C          0.90156000       0.52497000       0.07231000
   232  C          0.09844000       0.02497000       0.42769000
   233  H          0.08330000       0.46410000       0.81080000
   234  H          0.91670000       0.96410000       0.68920000
   235  H          0.91670000       0.53590000       0.18920000
   236  H          0.08330000       0.03590000       0.31080000
   237  C          0.15835000       0.52523000       0.45131000
   238  C          0.84165000       0.02523000       0.04869000
   239  C          0.84165000       0.47477000       0.54869000
   240  C          0.15835000       0.97477000       0.95131000
