data_FPAMCA
_symmetry_space_group_name_H-M    'P1'
_symmetry_Int_Tables_number       1
loop_
_symmetry_equiv_pos_site_id
_symmetry_equiv_pos_as_xyz
1 x,y,z
_cell_length_a                   39.848
_cell_length_b                   5.107
_cell_length_c                   12.24
_cell_angle_alpha                90.0
_cell_angle_beta                 92.47
_cell_angle_gamma                90.0
loop_
_atom_site_label
_atom_site_type_symbol
_atom_site_fract_x
_atom_site_fract_y
_atom_site_fract_z
     1  C          0.16280000       0.24420000       0.43960000
     2  C          0.66280000       0.74420000       0.43960000
     3  C          0.83720000       0.24420000       0.06040000
     4  C          0.33720000       0.74420000       0.06040000
     5  C          0.83720000       0.75580000       0.56040000
     6  C          0.33720000       0.25580000       0.56040000
     7  C          0.16280000       0.75580000       0.93960000
     8  C          0.66280000       0.25580000       0.93960000
     9  C          0.06300000       0.86730000       0.46860000
    10  C          0.56300000       0.36730000       0.46860000
    11  C          0.93700000       0.86730000       0.03140000
    12  C          0.43700000       0.36730000       0.03140000
    13  C          0.93700000       0.13270000       0.53140000
    14  C          0.43700000       0.63270000       0.53140000
    15  C          0.06300000       0.13270000       0.96860000
    16  C          0.56300000       0.63270000       0.96860000
    17  C          0.05830000       0.71750000       0.56040000
    18  C          0.55830000       0.21750000       0.56040000
    19  C          0.94170000       0.71750000       0.93960000
    20  C          0.44170000       0.21750000       0.93960000
    21  C          0.94170000       0.28250000       0.43960000
    22  C          0.44170000       0.78250000       0.43960000
    23  C          0.05830000       0.28250000       0.06040000
    24  C          0.55830000       0.78250000       0.06040000
    25  C          0.08450000       0.70230000       0.63820000
    26  C          0.58450000       0.20230000       0.63820000
    27  C          0.91550000       0.70230000       0.86180000
    28  C          0.41550000       0.20230000       0.86180000
    29  C          0.91550000       0.29770000       0.36180000
    30  C          0.41550000       0.79770000       0.36180000
    31  C          0.08450000       0.29770000       0.13820000
    32  C          0.58450000       0.79770000       0.13820000
    33  C          0.11440000       0.82990000       0.62410000
    34  C          0.61440000       0.32990000       0.62410000
    35  C          0.88560000       0.82990000       0.87590000
    36  C          0.38560000       0.32990000       0.87590000
    37  C          0.88560000       0.17010000       0.37590000
    38  C          0.38560000       0.67010000       0.37590000
    39  C          0.11440000       0.17010000       0.12410000
    40  C          0.61440000       0.67010000       0.12410000
    41  C          0.03620000       0.88550000       0.38030000
    42  C          0.53620000       0.38550000       0.38030000
    43  C          0.96380000       0.88550000       0.11970000
    44  C          0.46380000       0.38550000       0.11970000
    45  C          0.96380000       0.11450000       0.61970000
    46  C          0.46380000       0.61450000       0.61970000
    47  C          0.03620000       0.11450000       0.88030000
    48  C          0.53620000       0.61450000       0.88030000
    49  C          0.19610000       0.22130000       0.40330000
    50  C          0.69610000       0.72130000       0.40330000
    51  C          0.80390000       0.22130000       0.09670000
    52  C          0.30390000       0.72130000       0.09670000
    53  C          0.80390000       0.77870000       0.59670000
    54  C          0.30390000       0.27870000       0.59670000
    55  C          0.19610000       0.77870000       0.90330000
    56  C          0.69610000       0.27870000       0.90330000
    57  C          0.20680000       0.39020000       0.32170000
    58  C          0.70680000       0.89020000       0.32170000
    59  C          0.79320000       0.39020000       0.17830000
    60  C          0.29320000       0.89020000       0.17830000
    61  C          0.79320000       0.60980000       0.67830000
    62  C          0.29320000       0.10980000       0.67830000
    63  C          0.20680000       0.60980000       0.82170000
    64  C          0.70680000       0.10980000       0.82170000
    65  C          0.18600000       0.57780000       0.27580000
    66  C          0.68600000       0.07780000       0.27580000
    67  C          0.81400000       0.57780000       0.22420000
    68  C          0.31400000       0.07780000       0.22420000
    69  C          0.81400000       0.42220000       0.72420000
    70  C          0.31400000       0.92220000       0.72420000
    71  C          0.18600000       0.42220000       0.77580000
    72  C          0.68600000       0.92220000       0.77580000
    73  C          0.15380000       0.60570000       0.31370000
    74  C          0.65380000       0.10570000       0.31370000
    75  C          0.84620000       0.60570000       0.18630000
    76  C          0.34620000       0.10570000       0.18630000
    77  C          0.84620000       0.39430000       0.68630000
    78  C          0.34620000       0.89430000       0.68630000
    79  C          0.15380000       0.39430000       0.81370000
    80  C          0.65380000       0.89430000       0.81370000
    81  C          0.14240000       0.44370000       0.39410000
    82  C          0.64240000       0.94370000       0.39410000
    83  C          0.85760000       0.44370000       0.10590000
    84  C          0.35760000       0.94370000       0.10590000
    85  C          0.85760000       0.55630000       0.60590000
    86  C          0.35760000       0.05630000       0.60590000
    87  C          0.14240000       0.55630000       0.89410000
    88  C          0.64240000       0.05630000       0.89410000
    89  C          0.21960000       0.02400000       0.44860000
    90  C          0.71960000       0.52400000       0.44860000
    91  C          0.78040000       0.02400000       0.05140000
    92  C          0.28040000       0.52400000       0.05140000
    93  C          0.78040000      -0.02400000       0.55140000
    94  C          0.28040000       0.47600000       0.55140000
    95  C          0.21960000      -0.02400000       0.94860000
    96  C          0.71960000       0.47600000       0.94860000
    97  C          0.11920000      -0.02170000       0.53100000
    98  C          0.61920000       0.47830000       0.53100000
    99  C          0.88080000      -0.02170000       0.96900000
   100  C          0.38080000       0.47830000       0.96900000
   101  C          0.88080000       0.02170000       0.46900000
   102  C          0.38080000       0.52170000       0.46900000
   103  C          0.11920000       0.02170000       0.03100000
   104  C          0.61920000       0.52170000       0.03100000
   105  C          0.09310000      -0.00220000       0.45260000
   106  C          0.59310000       0.49780000       0.45260000
   107  C          0.90690000      -0.00220000       0.04740000
   108  C          0.40690000       0.49780000       0.04740000
   109  C          0.90690000       0.00220000       0.54740000
   110  C          0.40690000       0.50220000       0.54740000
   111  C          0.09310000       0.00220000       0.95260000
   112  C          0.59310000       0.50220000       0.95260000
   113  F          0.00790000       0.77240000       0.40470000
   114  F          0.50790000       0.27240000       0.40470000
   115  F          0.99210000       0.77240000       0.09530000
   116  F          0.49210000       0.27240000       0.09530000
   117  F          0.99210000       0.22760000       0.59530000
   118  F          0.49210000       0.72760000       0.59530000
   119  F          0.00790000       0.22760000       0.90470000
   120  F          0.50790000       0.72760000       0.90470000
   121  F          0.02830000       0.12760000       0.35410000
   122  F          0.52830000       0.62760000       0.35410000
   123  F          0.97170000       0.12760000       0.14590000
   124  F          0.47170000       0.62760000       0.14590000
   125  F          0.97170000       0.87240000       0.64590000
   126  F          0.47170000       0.37240000       0.64590000
   127  F          0.02830000       0.87240000       0.85410000
   128  F          0.52830000       0.37240000       0.85410000
   129  F          0.04560000       0.78140000       0.28820000
   130  F          0.54560000       0.28140000       0.28820000
   131  F          0.95440000       0.78140000       0.21180000
   132  F          0.45440000       0.28140000       0.21180000
   133  F          0.95440000       0.21860000       0.71180000
   134  F          0.45440000       0.71860000       0.71180000
   135  F          0.04560000       0.21860000       0.78820000
   136  F          0.54560000       0.71860000       0.78820000
   137  H          0.23040000       0.37130000       0.29760000
   138  H          0.73040000       0.87130000       0.29760000
   139  H          0.76960000       0.37130000       0.20240000
   140  H          0.26960000       0.87130000       0.20240000
   141  H          0.76960000       0.62870000       0.70240000
   142  H          0.26960000       0.12870000       0.70240000
   143  H          0.23040000       0.62870000       0.79760000
   144  H          0.73040000       0.12870000       0.79760000
   145  H          0.13250000       0.81640000       0.67680000
   146  H          0.63250000       0.31640000       0.67680000
   147  H          0.86750000       0.81640000       0.82320000
   148  H          0.36750000       0.31640000       0.82320000
   149  H          0.86750000       0.18360000       0.32320000
   150  H          0.36750000       0.68360000       0.32320000
   151  H          0.13250000       0.18360000       0.17680000
   152  H          0.63250000       0.68360000       0.17680000
   153  H          0.19350000       0.68880000       0.21100000
   154  H          0.69350000       0.18880000       0.21100000
   155  H          0.80650000       0.68880000       0.28900000
   156  H          0.30650000       0.18880000       0.28900000
   157  H          0.80650000       0.31120000       0.78900000
   158  H          0.30650000       0.81120000       0.78900000
   159  H          0.19350000       0.31120000       0.71100000
   160  H          0.69350000       0.81120000       0.71100000
   161  H          0.13760000       0.74770000       0.28440000
   162  H          0.63760000       0.24770000       0.28440000
   163  H          0.86240000       0.74770000       0.21560000
   164  H          0.36240000       0.24770000       0.21560000
   165  H          0.86240000       0.25230000       0.71560000
   166  H          0.36240000       0.75230000       0.71560000
   167  H          0.13760000       0.25230000       0.78440000
   168  H          0.63760000       0.75230000       0.78440000
   169  H          0.11980000       0.46150000       0.41990000
   170  H          0.61980000       0.96150000       0.41990000
   171  H          0.88020000       0.46150000       0.08010000
   172  H          0.38020000       0.96150000       0.08010000
   173  H          0.88020000       0.53850000       0.58010000
   174  H          0.38020000       0.03850000       0.58010000
   175  H          0.11980000       0.53850000       0.91990000
   176  H          0.61980000       0.03850000       0.91990000
   177  H          0.26110000       0.87710000       0.43170000
   178  H          0.76110000       0.37710000       0.43170000
   179  H          0.73890000       0.87710000       0.06830000
   180  H          0.23890000       0.37710000       0.06830000
   181  H          0.73890000       0.12290000       0.56830000
   182  H          0.23890000       0.62290000       0.56830000
   183  H          0.26110000       0.12290000       0.93170000
   184  H          0.76110000       0.62290000       0.93170000
   185  H          0.16590000      -0.02220000       0.55400000
   186  H          0.66590000       0.47780000       0.55400000
   187  H          0.83410000      -0.02220000       0.94600000
   188  H          0.33410000       0.47780000       0.94600000
   189  H          0.83410000       0.02220000       0.44600000
   190  H          0.33410000       0.52220000       0.44600000
   191  H          0.16590000       0.02220000       0.05400000
   192  H          0.66590000       0.52220000       0.05400000
   193  H          0.09430000       0.08490000       0.38680000
   194  H          0.59430000       0.58490000       0.38680000
   195  H          0.90570000       0.08490000       0.11320000
   196  H          0.40570000       0.58490000       0.11320000
   197  H          0.90570000       0.91510000       0.61320000
   198  H          0.40570000       0.41510000       0.61320000
   199  H          0.09430000       0.91510000       0.88680000
   200  H          0.59430000       0.41510000       0.88680000
   201  H          0.03670000       0.62960000       0.57010000
   202  H          0.53670000       0.12960000       0.57010000
   203  H          0.96330000       0.62960000       0.92990000
   204  H          0.46330000       0.12960000       0.92990000
   205  H          0.96330000       0.37040000       0.42990000
   206  H          0.46330000       0.87040000       0.42990000
   207  H          0.03670000       0.37040000       0.07010000
   208  H          0.53670000       0.87040000       0.07010000
   209  H          0.08060000       0.57840000       0.70410000
   210  H          0.58060000       0.07840000       0.70410000
   211  H          0.91940000       0.57840000       0.79590000
   212  H          0.41940000       0.07840000       0.79590000
   213  H          0.91940000       0.42160000       0.29590000
   214  H          0.41940000       0.92160000       0.29590000
   215  H          0.08060000       0.42160000       0.20410000
   216  H          0.58060000       0.92160000       0.20410000
   217  N          0.15160000       0.08120000       0.52010000
   218  N          0.65160000       0.58120000       0.52010000
   219  N          0.84840000       0.08120000       0.97990000
   220  N          0.34840000       0.58120000       0.97990000
   221  N          0.84840000       0.91880000       0.47990000
   222  N          0.34840000       0.41880000       0.47990000
   223  N          0.15160000       0.91880000       0.02010000
   224  N          0.65160000       0.41880000       0.02010000
   225  O          0.24810000       0.00800000       0.39830000
   226  O          0.74810000       0.50800000       0.39830000
   227  O          0.75190000       0.00800000       0.10170000
   228  O          0.25190000       0.50800000       0.10170000
   229  O          0.75190000      -0.00800000       0.60170000
   230  O          0.25190000       0.49200000       0.60170000
   231  O          0.24810000      -0.00800000       0.89830000
   232  O          0.74810000       0.49200000       0.89830000
   233  O          0.21400000       0.88310000       0.52730000
   234  O          0.71400000       0.38310000       0.52730000
   235  O          0.78600000       0.88310000       0.97270000
   236  O          0.28600000       0.38310000       0.97270000
   237  O          0.78600000       0.11690000       0.47270000
   238  O          0.28600000       0.61690000       0.47270000
   239  O          0.21400000       0.11690000       0.02730000
   240  O          0.71400000       0.61690000       0.02730000
