data_FUCTIG
_symmetry_space_group_name_H-M    'P1'
_symmetry_Int_Tables_number       1
loop_
_symmetry_equiv_pos_site_id
_symmetry_equiv_pos_as_xyz
1 x,y,z
_cell_length_a                   16.083
_cell_length_b                   3.7853
_cell_length_c                   18.853
_cell_angle_alpha                90.0
_cell_angle_beta                 98.162
_cell_angle_gamma                90.0
loop_
_atom_site_label
_atom_site_type_symbol
_atom_site_fract_x
_atom_site_fract_y
_atom_site_fract_z
     1  N          0.36172000       0.16351000       0.34452000
     2  N          0.86172000       0.66351000       0.34452000
     3  N          0.63828000       0.16351000       0.15548000
     4  N          0.13828000       0.66351000       0.15548000
     5  N          0.63828000       0.83649000       0.65548000
     6  N          0.13828000       0.33649000       0.65548000
     7  N          0.36172000       0.83649000       0.84452000
     8  N          0.86172000       0.33649000       0.84452000
     9  C          0.43383000      -0.00031200       0.34002000
    10  C          0.93383000       0.49968800       0.34002000
    11  C          0.56617000      -0.00031200       0.15998000
    12  C          0.06617000       0.49968800       0.15998000
    13  C          0.56617000       0.00031200       0.65998000
    14  C          0.06617000       0.50031200       0.65998000
    15  C          0.43383000       0.00031200       0.84002000
    16  C          0.93383000       0.50031200       0.84002000
    17  C          0.48942000       0.93068900       0.40032000
    18  C          0.98942000       0.43068900       0.40032000
    19  C          0.51058000       0.93068900       0.09968000
    20  C          0.01058000       0.43068900       0.09968000
    21  C          0.51058000       0.06931100       0.59968000
    22  C          0.01058000       0.56931100       0.59968000
    23  C          0.48942000       0.06931100       0.90032000
    24  C          0.98942000       0.56931100       0.90032000
    25  C          0.47012000       0.03371000       0.46682000
    26  C          0.97012000       0.53371000       0.46682000
    27  C          0.52988000       0.03371000       0.03318000
    28  C          0.02988000       0.53371000       0.03318000
    29  C          0.52988000      -0.03371000       0.53318000
    30  C          0.02988000       0.46629000       0.53318000
    31  C          0.47012000      -0.03371000       0.96682000
    32  C          0.97012000       0.46629000       0.96682000
    33  C          0.39362000       0.20051100       0.46912000
    34  C          0.89362000       0.70051100       0.46912000
    35  C          0.60638000       0.20051100       0.03088000
    36  C          0.10638000       0.70051100       0.03088000
    37  C          0.60638000       0.79948900       0.53088000
    38  C          0.10638000       0.29948900       0.53088000
    39  C          0.39362000       0.79948900       0.96912000
    40  C          0.89362000       0.29948900       0.96912000
    41  C          0.34042000       0.26371100       0.40702000
    42  C          0.84042000       0.76371100       0.40702000
    43  C          0.65958000       0.26371100       0.09298000
    44  C          0.15958000       0.76371100       0.09298000
    45  C          0.65958000       0.73628900       0.59298000
    46  C          0.15958000       0.23628900       0.59298000
    47  C          0.34042000       0.73628900       0.90702000
    48  C          0.84042000       0.23628900       0.90702000
    49  H          0.32572900       0.21212000       0.30492500
    50  H          0.82572900       0.71212000       0.30492500
    51  H          0.67427100       0.21212000       0.19507500
    52  H          0.17427100       0.71212000       0.19507500
    53  H          0.67427100       0.78788000       0.69507500
    54  H          0.17427100       0.28788000       0.69507500
    55  H          0.32572900       0.78788000       0.80492500
    56  H          0.82572900       0.28788000       0.80492500
    57  H          0.44762400       0.92989000       0.29592200
    58  H          0.94762400       0.42989000       0.29592200
    59  H          0.55237600       0.92989000       0.20407800
    60  H          0.05237600       0.42989000       0.20407800
    61  H          0.55237600       0.07011000       0.70407800
    62  H          0.05237600       0.57011000       0.70407800
    63  H          0.44762400       0.07011000       0.79592200
    64  H          0.94762400       0.57011000       0.79592200
    65  H          0.53952300       0.80590000       0.39421800
    66  H          0.03952300       0.30590000       0.39421800
    67  H          0.46047700       0.80590000       0.10578200
    68  H          0.96047700       0.30590000       0.10578200
    69  H          0.46047700       0.19410000       0.60578200
    70  H          0.96047700       0.69410000       0.60578200
    71  H          0.53952300       0.19410000       0.89421800
    72  H          0.03952300       0.69410000       0.89421800
    73  H          0.37482300       0.25412000       0.51212100
    74  H          0.87482300       0.75412000       0.51212100
    75  H          0.62517700       0.25412000       0.98787900
    76  H          0.12517700       0.75412000       0.98787900
    77  H          0.62517700       0.74588000       0.48787900
    78  H          0.12517700       0.24588000       0.48787900
    79  H          0.37482300       0.74588000       0.01212100
    80  H          0.87482300       0.24588000       0.01212100
    81  H          0.29152700       0.36111000       0.40572100
    82  H          0.79152700       0.86111000       0.40572100
    83  H          0.70847300       0.36111000       0.09427900
    84  H          0.20847300       0.86111000       0.09427900
    85  H          0.70847300       0.63889000       0.59427900
    86  H          0.20847300       0.13889000       0.59427900
    87  H          0.29152700       0.63889000       0.90572100
    88  H          0.79152700       0.13889000       0.90572100
    89  N          0.34262000       0.32889000       0.16682000
    90  N          0.84262000       0.82889000       0.16682000
    91  N          0.65738000       0.32889000       0.33318000
    92  N          0.15738000       0.82889000       0.33318000
    93  N          0.65738000       0.67111000       0.83318000
    94  N          0.15738000       0.17111000       0.83318000
    95  N          0.34262000       0.67111000       0.66682000
    96  N          0.84262000       0.17111000       0.66682000
    97  O          0.29052000       0.18849000       0.20191000
    98  O          0.79052000       0.68849000       0.20191000
    99  O          0.70948000       0.18849000       0.29809000
   100  O          0.20948000       0.68849000       0.29809000
   101  O          0.70948000       0.81151000       0.79809000
   102  O          0.20948000       0.31151000       0.79809000
   103  O          0.29052000       0.81151000       0.70191000
   104  O          0.79052000       0.31151000       0.70191000
   105  O          0.40752000       0.46279000       0.19891000
   106  O          0.90752000       0.96279000       0.19891000
   107  O          0.59248000       0.46279000       0.30109000
   108  O          0.09248000       0.96279000       0.30109000
   109  O          0.59248000       0.53721000       0.80109000
   110  O          0.09248000       0.03721000       0.80109000
   111  O          0.40752000       0.53721000       0.69891000
   112  O          0.90752000       0.03721000       0.69891000
   113  O          0.32862000       0.32599000       0.10061000
   114  O          0.82862000       0.82599000       0.10061000
   115  O          0.67138000       0.32599000       0.39939000
   116  O          0.17138000       0.82599000       0.39939000
   117  O          0.67138000       0.67401000       0.89939000
   118  O          0.17138000       0.17401000       0.89939000
   119  O          0.32862000       0.67401000       0.60061000
   120  O          0.82862000       0.17401000       0.60061000
