data_FUCTIG04
_symmetry_space_group_name_H-M    'P1'
_symmetry_Int_Tables_number       1
loop_
_symmetry_equiv_pos_site_id
_symmetry_equiv_pos_as_xyz
1 x,y,z
_cell_length_a                   13.2403
_cell_length_b                   12.0943
_cell_length_c                   7.385218
_cell_angle_alpha                90.0
_cell_angle_beta                 92.4851
_cell_angle_gamma                90.0
loop_
_atom_site_label
_atom_site_type_symbol
_atom_site_fract_x
_atom_site_fract_y
_atom_site_fract_z
     1  C          0.70987190       0.16982000       0.49503000
     2  C          0.29012810       0.66982000       0.00497000
     3  C          0.29012810       0.83018000       0.50497000
     4  C          0.70987190       0.33018000      -0.00497000
     5  H          0.66054700       0.11568000       0.51427700
     6  H          0.33945300       0.61568000      -0.01427700
     7  H          0.33945300       0.88432000       0.48572300
     8  H          0.66054700       0.38432000       0.01427700
     9  C          0.68667180       0.27892180       0.51103000
    10  C          0.31332820       0.77892180      -0.01103000
    11  C          0.31332820       0.72107820       0.48897000
    12  C          0.68667180       0.22107820       0.01103000
    13  H          0.62092400       0.29993000       0.53978200
    14  H          0.37907600       0.79993000       0.96021800
    15  H          0.37907600       0.70007000       0.46021800
    16  H          0.62092400       0.20007000       0.03978200
    17  C          0.75954160       0.35954180       0.48513000
    18  C          0.24045840       0.85954180       0.01487000
    19  C          0.24045840       0.64045820       0.51487000
    20  C          0.75954160       0.14045820      -0.01487000
    21  C          0.85471170       0.32358190       0.44163000
    22  C          0.14528830       0.82358190       0.05837000
    23  C          0.14528830       0.67641810       0.55837000
    24  C          0.85471170       0.17641810       0.94163000
    25  H          0.90624000       0.37541100       0.42376500
    26  H          0.09376000       0.87541100       0.07623500
    27  H          0.09376000       0.62458900       0.57623500
    28  H          0.90624000       0.12458900       0.92376500
    29  C          0.87419190       0.21365190       0.42443000
    30  C          0.12580810       0.71365190       0.07557000
    31  C          0.12580810       0.78634810       0.57557000
    32  C          0.87419190       0.28634810       0.92443000
    33  H          0.93870000       0.18988800       0.39282400
    34  H          0.06130000       0.68988800       0.10717600
    35  H          0.06130000       0.81011200       0.60717600
    36  H          0.93870000       0.31011200       0.89282400
    37  C          0.63707180       0.62432000       0.61653000
    38  C          0.36292820       0.12432000       0.88347000
    39  C          0.36292820       0.37568000       0.38347000
    40  C          0.63707180       0.87568000       0.11653000
    41  H          0.58097900       0.64825000       0.67974100
    42  H          0.41902100       0.14825000       0.82025900
    43  H          0.41902100       0.35175000       0.32025900
    44  H          0.58097900       0.85175000       0.17974100
    45  C          0.65546170       0.51384190       0.59853000
    46  C          0.34453830       0.01384190       0.90147000
    47  C          0.34453830       0.48615810       0.40147000
    48  C          0.65546170       0.98615810       0.09853000
    49  H          0.61222800       0.46180800       0.64941700
    50  H          0.38777200       0.96180800       0.85058300
    51  H          0.38777200       0.53819200       0.35058300
    52  H          0.61222800       0.03819200       0.14941700
    53  C          0.73793160       0.47879180       0.50513000
    54  C          0.26206840       0.97879180      -0.00513000
    55  C          0.26206840       0.52120820       0.49487000
    56  C          0.73793160       0.02120820       0.00513000
    57  C          0.79988180       0.55880180       0.43303000
    58  C          0.20011820       0.05880180       0.06697000
    59  C          0.20011820       0.44119820       0.56697000
    60  C          0.79988180       0.94119820       0.93303000
    61  H          0.85637900       0.53771000       0.36835100
    62  H          0.14362100       0.03771000       0.13164900
    63  H          0.14362100       0.46229000       0.63164900
    64  H          0.85637900       0.96229000       0.86835100
    65  C          0.77844190       0.66812000       0.45633000
    66  C          0.22155810       0.16812000       0.04367000
    67  C          0.22155810       0.33188000       0.54367000
    68  C          0.77844190       0.83188000       0.95633000
    69  H          0.82079000       0.72242700       0.40935500
    70  H          0.17921000       0.22242700       0.09064500
    71  H          0.17921000       0.27757300       0.59064500
    72  H          0.82079000       0.77757300       0.90935500
    73  N          0.80223160       0.14008160       0.45213000
    74  N          0.19776840       0.64008160       0.04787000
    75  N          0.19776840       0.85991840       0.54787000
    76  N          0.80223160       0.35991840       0.95213000
    77  H          0.81721700       0.06620000       0.44230000
    78  H          0.18278300       0.56620000       0.05770000
    79  H          0.18278300       0.93380000       0.55770000
    80  H          0.81721700       0.43380000       0.94230000
    81  N          0.69785160       0.69770170       0.54533000
    82  N          0.30214840       0.19770170       0.95467000
    83  N          0.30214840       0.30229830       0.45467000
    84  N          0.69785160       0.80229830       0.04533000
    85  H          0.68401900       0.76820000       0.55730000
    86  H          0.31598100       0.26820000       0.94270000
    87  H          0.31598100       0.23180000       0.44270000
    88  H          0.68401900       0.73180000       0.05730000
    89  N          0.92465150       0.91289160       0.31873000
    90  N          0.07534850       0.41289160       0.18127000
    91  N          0.07534850       0.08710840       0.68127000
    92  N          0.92465150       0.58710840       0.81873000
    93  O          0.95223120       0.81897140       0.27983000
    94  O          0.04776880       0.31897140       0.22017000
    95  O          0.04776880       0.18102860       0.72017000
    96  O          0.95223120       0.68102860       0.77983000
    97  O          0.96986130      -0.00438860       0.26843000
    98  O          0.03013870       0.49561140       0.23157000
    99  O          0.03013870       0.00438860       0.73157000
   100  O          0.96986130       0.50438860       0.76843000
   101  O          0.84690130       0.92447120       0.40943000
   102  O          0.15309870       0.42447120       0.09057000
   103  O          0.15309870       0.07552880       0.59057000
   104  O          0.84690130       0.57552880       0.90943000
   105  N          0.57226150       0.92912160       0.66023000
   106  N          0.42773850       0.42912160       0.83977000
   107  N          0.42773850       0.07087840       0.33977000
   108  N          0.57226150       0.57087840       0.16023000
   109  O          0.65076130       0.91473120       0.57133000
   110  O          0.34923870       0.41473120       0.92867000
   111  O          0.34923870       0.08526880       0.42867000
   112  O          0.65076130       0.58526880       0.07133000
   113  O          0.52382120       0.84842130       0.71052000
   114  O          0.47617880       0.34842130       0.78948000
   115  O          0.47617880       0.15157870       0.28948000
   116  O          0.52382120       0.65157870       0.21052000
   117  O          0.54652120       0.02434130       0.69652000
   118  O          0.45347880       0.52434130       0.80348000
   119  O          0.45347880       0.97565870       0.30348000
   120  O          0.54652120       0.47565870       0.19652000
