data_FUCTIG02
_symmetry_space_group_name_H-M    'P1'
_symmetry_Int_Tables_number       1
loop_
_symmetry_equiv_pos_site_id
_symmetry_equiv_pos_as_xyz
1 x,y,z
_cell_length_a                   27.438016
_cell_length_b                   23.431012
_cell_length_c                   3.58772
_cell_angle_alpha                90.0
_cell_angle_beta                 90.0
_cell_angle_gamma                90.0
loop_
_atom_site_label
_atom_site_type_symbol
_atom_site_fract_x
_atom_site_fract_y
_atom_site_fract_z
     1  C          0.24593600       0.21849700       0.36225000
     2  C          0.75406400       0.78150300       0.36225000
     3  C          0.49593600       0.03150300       0.61225000
     4  C          0.00406400       0.46849700       0.61225000
     5  C          0.24593600       0.71849700       0.86225000
     6  C          0.75406400       0.28150300       0.86225000
     7  C          0.49593600       0.53150300       0.11225000
     8  C          0.00406400       0.96849700       0.11225000
     9  C          0.74593600       0.21849700       0.86225000
    10  C          0.25406400       0.78150300       0.86225000
    11  C         -0.00406400       0.03150300       0.11225000
    12  C          0.50406400       0.46849700       0.11225000
    13  C          0.74593600       0.71849700       0.36225000
    14  C          0.25406400       0.28150300       0.36225000
    15  C         -0.00406400       0.53150300       0.61225000
    16  C          0.50406400       0.96849700       0.61225000
    17  C          0.28269600       0.18137700       0.47375000
    18  C          0.71730400       0.81862300       0.47375000
    19  C          0.53269600       0.06862300       0.72375000
    20  C          0.96730400       0.43137700       0.72375000
    21  C          0.28269600       0.68137700      -0.02625000
    22  C          0.71730400       0.31862300      -0.02625000
    23  C          0.53269600       0.56862300       0.22375000
    24  C          0.96730400       0.93137700       0.22375000
    25  C          0.78269600       0.18137700      -0.02625000
    26  C          0.21730400       0.81862300      -0.02625000
    27  C          0.03269600       0.06862300       0.22375000
    28  C          0.46730400       0.43137700       0.22375000
    29  C          0.78269600       0.68137700       0.47375000
    30  C          0.21730400       0.31862300       0.47375000
    31  C          0.03269600       0.56862300       0.72375000
    32  C          0.46730400       0.93137700       0.72375000
    33  H          0.31380000       0.19570000       0.54260000
    34  H          0.68620000       0.80430000       0.54260000
    35  H          0.56380000       0.05430000       0.79260000
    36  H          0.93620000       0.44570000       0.79260000
    37  H          0.31380000       0.69570000       0.04260000
    38  H          0.68620000       0.30430000       0.04260000
    39  H          0.56380000       0.55430000       0.29260000
    40  H          0.93620000       0.94570000       0.29260000
    41  H          0.81380000       0.19570000       0.04260000
    42  H          0.18620000       0.80430000       0.04260000
    43  H          0.06380000       0.05430000       0.29260000
    44  H          0.43620000       0.44570000       0.29260000
    45  H          0.81380000       0.69570000       0.54260000
    46  H          0.18620000       0.30430000       0.54260000
    47  H          0.06380000       0.55430000       0.79260000
    48  H          0.43620000       0.94570000       0.79260000
    49  C          0.27359600       0.12345800       0.48355000
    50  C          0.72640400       0.87654200       0.48355000
    51  C          0.52359600       0.12654200       0.73355000
    52  C          0.97640400       0.37345800       0.73355000
    53  C          0.27359600       0.62345800      -0.01645000
    54  C          0.72640400       0.37654200      -0.01645000
    55  C          0.52359600       0.62654200       0.23355000
    56  C          0.97640400       0.87345800       0.23355000
    57  C          0.77359600       0.12345800      -0.01645000
    58  C          0.22640400       0.87654200      -0.01645000
    59  C          0.02359600       0.12654200       0.23355000
    60  C          0.47640400       0.37345800       0.23355000
    61  C          0.77359600       0.62345800       0.48355000
    62  C          0.22640400       0.37654200       0.48355000
    63  C          0.02359600       0.62654200       0.73355000
    64  C          0.47640400       0.87345800       0.73355000
    65  H          0.29820000       0.09770000       0.56320000
    66  H          0.70180000       0.90230000       0.56320000
    67  H          0.54820000       0.15230000       0.81320000
    68  H          0.95180000       0.34770000       0.81320000
    69  H          0.29820000       0.59770000       0.06320000
    70  H          0.70180000       0.40230000       0.06320000
    71  H          0.54820000       0.65230000       0.31320000
    72  H          0.95180000       0.84770000       0.31320000
    73  H          0.79820000       0.09770000       0.06320000
    74  H          0.20180000       0.90230000       0.06320000
    75  H          0.04820000       0.15230000       0.31320000
    76  H          0.45180000       0.34770000       0.31320000
    77  H          0.79820000       0.59770000       0.56320000
    78  H          0.20180000       0.40230000       0.56320000
    79  H          0.04820000       0.65230000       0.81320000
    80  H          0.45180000       0.84770000       0.81320000
    81  N          0.22977500       0.10379600       0.37975000
    82  N          0.77022500       0.89620400       0.37975000
    83  N          0.47977500       0.14620400       0.62975000
    84  N          0.02022500       0.35379600       0.62975000
    85  N          0.22977500       0.60379600       0.87975000
    86  N          0.77022500       0.39620400       0.87975000
    87  N          0.47977500       0.64620400       0.12975000
    88  N          0.02022500       0.85379600       0.12975000
    89  N          0.72977500       0.10379600       0.87975000
    90  N          0.27022500       0.89620400       0.87975000
    91  N          0.97977500       0.14620400       0.12975000
    92  N          0.52022500       0.35379600       0.12975000
    93  N          0.72977500       0.60379600       0.37975000
    94  N          0.27022500       0.39620400       0.37975000
    95  N          0.97977500       0.64620400       0.62975000
    96  N          0.52022500       0.85379600       0.62975000
    97  H          0.22440000       0.06680000       0.38790000
    98  H          0.77560000       0.93320000       0.38790000
    99  H          0.47440000       0.18320000       0.63790000
   100  H          0.02560000       0.31680000       0.63790000
   101  H          0.22440000       0.56680000       0.88790000
   102  H          0.77560000       0.43320000       0.88790000
   103  H          0.47440000       0.68320000       0.13790000
   104  H          0.02560000       0.81680000       0.13790000
   105  H          0.72440000       0.06680000       0.88790000
   106  H          0.27560000       0.93320000       0.88790000
   107  H          0.97440000       0.18320000       0.13790000
   108  H          0.52560000       0.31680000       0.13790000
   109  H          0.72440000       0.56680000       0.38790000
   110  H          0.27560000       0.43320000       0.38790000
   111  H          0.97440000       0.68320000       0.63790000
   112  H          0.52560000       0.81680000       0.63790000
   113  C          0.19384600       0.13830800       0.26405000
   114  C          0.80615400       0.86169200       0.26405000
   115  C          0.44384600       0.11169200       0.51405000
   116  C          0.05615400       0.38830800       0.51405000
   117  C          0.19384600       0.63830800       0.76405000
   118  C          0.80615400       0.36169200       0.76405000
   119  C          0.44384600       0.61169200       0.01405000
   120  C          0.05615400       0.88830800       0.01405000
   121  C          0.69384600       0.13830800       0.76405000
   122  C          0.30615400       0.86169200       0.76405000
   123  C          0.94384600       0.11169200       0.01405000
   124  C          0.55615400       0.38830800       0.01405000
   125  C          0.69384600       0.63830800       0.26405000
   126  C          0.30615400       0.36169200       0.26405000
   127  C          0.94384600       0.61169200       0.51405000
   128  C          0.55615400       0.88830800       0.51405000
   129  H          0.16350000       0.12260000       0.18790000
   130  H          0.83650000       0.87740000       0.18790000
   131  H          0.41350000       0.12740000       0.43790000
   132  H          0.08650000       0.37260000       0.43790000
   133  H          0.16350000       0.62260000       0.68790000
   134  H          0.83650000       0.37740000       0.68790000
   135  H          0.41350000       0.62740000       0.93790000
   136  H          0.08650000       0.87260000       0.93790000
   137  H          0.66350000       0.12260000       0.68790000
   138  H          0.33650000       0.87740000       0.68790000
   139  H          0.91350000       0.12740000       0.93790000
   140  H          0.58650000       0.37260000       0.93790000
   141  H          0.66350000       0.62260000       0.18790000
   142  H          0.33650000       0.37740000       0.18790000
   143  H          0.91350000       0.62740000       0.43790000
   144  H          0.58650000       0.87260000       0.43790000
   145  C          0.20076600       0.19635800       0.25526000
   146  C          0.79923400       0.80364200       0.25526000
   147  C          0.45076600       0.05364200       0.50526000
   148  C          0.04923400       0.44635800       0.50526000
   149  C          0.20076600       0.69635800       0.75526000
   150  C          0.79923400       0.30364200       0.75526000
   151  C          0.45076600       0.55364200       0.00526000
   152  C          0.04923400       0.94635800       0.00526000
   153  C          0.70076600       0.19635800       0.75526000
   154  C          0.29923400       0.80364200       0.75526000
   155  C          0.95076600       0.05364200       0.00526000
   156  C          0.54923400       0.44635800       0.00526000
   157  C          0.70076600       0.69635800       0.25526000
   158  C          0.29923400       0.30364200       0.25526000
   159  C          0.95076600       0.55364200       0.50526000
   160  C          0.54923400       0.94635800       0.50526000
   161  H          0.17520000       0.22100000       0.17770000
   162  H          0.82480000       0.77900000       0.17770000
   163  H          0.42520000       0.02900000       0.42770000
   164  H          0.07480000       0.47100000       0.42770000
   165  H          0.17520000       0.72100000       0.67770000
   166  H          0.82480000       0.27900000       0.67770000
   167  H          0.42520000       0.52900000       0.92770000
   168  H          0.07480000       0.97100000       0.92770000
   169  H          0.67520000       0.22100000       0.67770000
   170  H          0.32480000       0.77900000       0.67770000
   171  H          0.92520000       0.02900000       0.92770000
   172  H          0.57480000       0.47100000       0.92770000
   173  H          0.67520000       0.72100000       0.17770000
   174  H          0.32480000       0.27900000       0.17770000
   175  H          0.92520000       0.52900000       0.42770000
   176  H          0.57480000       0.97100000       0.42770000
   177  N          0.16244500       0.98700400       0.51584000
   178  N          0.83755500       0.01299600       0.51584000
   179  N          0.41244500       0.26299600       0.76584000
   180  N          0.08755500       0.23700400       0.76584000
   181  N          0.16244500       0.48700400       0.01584000
   182  N          0.83755500       0.51299600       0.01584000
   183  N          0.41244500       0.76299600       0.26584000
   184  N          0.08755500       0.73700400       0.26584000
   185  N          0.66244500       0.98700400       0.01584000
   186  N          0.33755500       0.01299600       0.01584000
   187  N          0.91244500       0.26299600       0.26584000
   188  N          0.58755500       0.23700400       0.26584000
   189  N          0.66244500       0.48700400       0.51584000
   190  N          0.33755500       0.51299600       0.51584000
   191  N          0.91244500       0.76299600       0.76584000
   192  N          0.58755500       0.73700400       0.76584000
   193  O          0.20540400       0.99278500       0.38754000
   194  O          0.79459600       0.00721500       0.38754000
   195  O          0.45540400       0.25721500       0.63754000
   196  O          0.04459600       0.24278500       0.63754000
   197  O          0.20540400       0.49278500       0.88754000
   198  O          0.79459600       0.50721500       0.88754000
   199  O          0.45540400       0.75721500       0.13754000
   200  O          0.04459600       0.74278500       0.13754000
   201  O          0.70540400       0.99278500       0.88754000
   202  O          0.29459600       0.00721500       0.88754000
   203  O          0.95540400       0.25721500       0.13754000
   204  O          0.54459600       0.24278500       0.13754000
   205  O          0.70540400       0.49278500       0.38754000
   206  O          0.29459600       0.50721500       0.38754000
   207  O          0.95540400       0.75721500       0.63754000
   208  O          0.54459600       0.74278500       0.63754000
   209  O          0.14410400       0.93837500       0.52364000
   210  O          0.85589600       0.06162500       0.52364000
   211  O          0.39410400       0.31162500       0.77364000
   212  O          0.10589600       0.18837500       0.77364000
   213  O          0.14410400       0.43837500       0.02364000
   214  O          0.85589600       0.56162500       0.02364000
   215  O          0.39410400       0.81162500       0.27364000
   216  O          0.10589600       0.68837500       0.27364000
   217  O          0.64410400       0.93837500       0.02364000
   218  O          0.35589600       0.06162500       0.02364000
   219  O          0.89410400       0.31162500       0.27364000
   220  O          0.60589600       0.18837500       0.27364000
   221  O          0.64410400       0.43837500       0.52364000
   222  O          0.35589600       0.56162500       0.52364000
   223  O          0.89410400       0.81162500       0.77364000
   224  O          0.60589600       0.68837500       0.77364000
   225  O          0.13986500       0.02977500       0.63194000
   226  O          0.86013500       0.97022500       0.63194000
   227  O          0.38986500       0.22022500       0.88194000
   228  O          0.11013500       0.27977500       0.88194000
   229  O          0.13986500       0.52977500       0.13194000
   230  O          0.86013500       0.47022500       0.13194000
   231  O          0.38986500       0.72022500       0.38194000
   232  O          0.11013500       0.77977500       0.38194000
   233  O          0.63986500       0.02977500       0.13194000
   234  O          0.36013500       0.97022500       0.13194000
   235  O          0.88986500       0.22022500       0.38194000
   236  O          0.61013500       0.27977500       0.38194000
   237  O          0.63986500       0.52977500       0.63194000
   238  O          0.36013500       0.47022500       0.63194000
   239  O          0.88986500       0.72022500       0.88194000
   240  O          0.61013500       0.77977500       0.88194000
