data_FUGQUT02
_symmetry_space_group_name_H-M    'P1'
_symmetry_Int_Tables_number       1
loop_
_symmetry_equiv_pos_site_id
_symmetry_equiv_pos_as_xyz
1 x,y,z
_cell_length_a                   8.10691
_cell_length_b                   22.4063
_cell_length_c                   14.747816
_cell_angle_alpha                90.0
_cell_angle_beta                 94.08712
_cell_angle_gamma                90.0
loop_
_atom_site_label
_atom_site_type_symbol
_atom_site_fract_x
_atom_site_fract_y
_atom_site_fract_z
     1  S          0.92262000       0.04894000       0.24424000
     2  S          0.07738000       0.54894000       0.75576000
     3  S          0.09588000       0.04194000       0.34974000
     4  S          0.90412000       0.54194000       0.65026000
     5  O          0.54051900       0.04651000       0.13121000
     6  O          0.45948100       0.54651000       0.86879000
     7  O          0.50871800       0.02869000       0.98689000
     8  O          0.49128200       0.52869000       0.01311000
     9  O          0.35530000       0.91378900       0.61301700
    10  O          0.64470000       0.41378900       0.38698300
    11  O          0.35230000       0.82409000       0.57641600
    12  O          0.64770000       0.32409000       0.42358400
    13  N          0.45320000       0.04061000       0.05831200
    14  N          0.54680000       0.54061000       0.94168800
    15  N          0.31640000       0.87638700       0.56320000
    16  N          0.68360000       0.37638700       0.43680000
    17  C          0.02951700       0.04307000       0.14508000
    18  C          0.97048300       0.54307000       0.85492000
    19  C          0.20091700       0.04077000       0.14557000
    20  C          0.79908300       0.54077000       0.85443000
    21  C          0.27711200       0.04177000       0.06409000
    22  C          0.72288800       0.54177000       0.93591000
    23  C          0.18181700       0.04508000       0.98193000
    24  C          0.81818300       0.54508000       0.01807000
    25  C          0.01041600       0.04737000       0.98132000
    26  C         -0.01041600       0.54737000       0.01868000
    27  C          0.93428800       0.04637000       0.06291100
    28  C          0.06571200       0.54637000       0.93708900
    29  C          0.12731900       0.96405000       0.36801100
    30  C          0.87268100       0.46405000       0.63198900
    31  C          0.20371900       0.94933000       0.45241000
    32  C          0.79628100       0.44933000       0.54759000
    33  C          0.23831800       0.88992000       0.47379000
    34  C          0.76168200       0.38992000       0.52621000
    35  C          0.19720000       0.84545000       0.41061200
    36  C          0.80280000       0.34545000       0.58938800
    37  C          0.12011900       0.86023000       0.32621100
    38  C          0.87988100       0.36023000       0.67378900
    39  C          0.08551700       0.91952000       0.30498000
    40  C          0.91448300       0.41952000       0.69502000
    41  H          0.26465200       0.03845600       0.20039200
    42  H          0.73534800       0.53845600       0.79960800
    43  H          0.23279600       0.04562800       0.92745000
    44  H          0.76720400       0.54562800       0.07255000
    45  H          0.94670400       0.04945700       0.92655800
    46  H          0.05329600       0.54945700       0.07344200
    47  H          0.81958400       0.04778600       0.06258500
    48  H          0.18041600       0.54778600       0.93741500
    49  H          0.23160500       0.97916700       0.49461500
    50  H          0.76839500       0.47916700       0.50538500
    51  H          0.21969200       0.80578700       0.42479200
    52  H          0.78030800       0.30578700       0.57520800
    53  H          0.09216500       0.83046800       0.28396000
    54  H          0.90783500       0.33046800       0.71604000
    55  H          0.03435800       0.92949800       0.24845400
    56  H          0.96564200       0.42949800       0.75154600
    57  S          0.64512000       0.18944000      -0.00764000
    58  S          0.35488000       0.68944000       0.00764000
    59  S          0.81242000       0.19784000       0.09934000
    60  S          0.18758000       0.69784000       0.90066000
    61  O          0.26401700       0.17668000       0.89049000
    62  O          0.73598300       0.67668000       0.10951000
    63  O          0.24761800       0.19279000       0.74359000
    64  O          0.75238200       0.69279000       0.25641000
    65  O          0.04630000       0.32771000       0.36031400
    66  O          0.95370000       0.82771000       0.63968600
    67  O          0.02730000       0.41951100       0.32091800
    68  O          0.97270000       0.91951100       0.67908200
    69  N          0.18620000       0.18641000       0.81658700
    70  N          0.81380000       0.68641000       0.18341300
    71  N          0.02330000       0.36931300       0.31020000
    72  N          0.97670000       0.86931300       0.68980000
    73  C          0.75898600       0.18868000       0.89364000
    74  C          0.24101400       0.68868000       0.10636000
    75  C          0.93048600       0.18638000       0.89434000
    76  C          0.06951400       0.68638000       0.10566000
    77  C          0.00691100       0.18698000       0.81292000
    78  C         -0.00691100       0.68698000       0.18708000
    79  C          0.91178500       0.18988000       0.73074000
    80  C          0.08821500       0.68988000       0.26926000
    81  C          0.74038500       0.19217000       0.73004000
    82  C          0.25961500       0.69217000       0.26996000
    83  C          0.66398900       0.19156000       0.81142000
    84  C          0.33601100       0.69156000       0.18858000
    85  C          0.82918100       0.27506000       0.11591000
    86  C          0.17081900       0.77506000       0.88409000
    87  C          0.90108200       0.29177000       0.20058000
    88  C          0.09891800       0.79177000       0.79942000
    89  C          0.93228300       0.35168000       0.21969000
    90  C          0.06771700       0.85168000       0.78031000
    91  C          0.89180000       0.39476000       0.15421300
    92  C          0.10820000       0.89476000       0.84578700
    93  C          0.81980000       0.37817000       0.06961100
    94  C          0.18020000       0.87817000       0.93038900
    95  C          0.78848200       0.31828000       0.05047000
    96  C          0.21151800       0.81828000       0.94953000
    97  H         -0.00594000       0.18439800       0.94934500
    98  H          0.00594000       0.68439800       0.05065500
    99  H          0.96295800       0.19025100       0.67633400
   100  H          0.03704200       0.69025100       0.32366600
   101  H          0.67682700       0.19404300       0.67515500
   102  H          0.32317300       0.69404300       0.32484500
   103  H          0.54931200       0.19301300       0.81107300
   104  H          0.45068800       0.69301300       0.18892700
   105  H          0.92837800       0.26280700       0.24429000
   106  H          0.07162200       0.76280700       0.75571000
   107  H          0.91244500       0.43479500       0.16695100
   108  H          0.08755500       0.93479500       0.83304900
   109  H          0.79242900       0.40697100       0.02575500
   110  H          0.20757100       0.90697100       0.97424500
   111  H          0.74039000       0.30706500      -0.00617100
   112  H          0.25961000       0.80706500       0.00617100
   113  S          0.32368000       0.19373000       0.15384000
   114  S          0.67632000       0.69373000       0.84616000
   115  S          0.49158000       0.17984000       0.25935000
   116  S          0.50842000       0.67984000       0.74065000
   117  O          0.11430000       0.32591000       0.88898600
   118  O          0.88570000       0.82591000       0.11101400
   119  O          0.19630000       0.41321100       0.91608300
   120  O          0.80370000       0.91321100       0.08391700
   121  O          0.87498300       0.18671000       0.36971000
   122  O          0.12501700       0.68671000       0.63029000
   123  O          0.89998200       0.20559000       0.51221000
   124  O          0.10001800       0.70559000       0.48779000
   125  N          0.17830000       0.36661300       0.93780000
   126  N          0.82170000       0.86661300       0.06220000
   127  N          0.95880000       0.19949000       0.44051200
   128  N          0.04120000       0.69949000       0.55948800
   129  C          0.33520000       0.26976000       0.13161100
   130  C          0.66480000       0.76976000       0.86838900
   131  C          0.26101900       0.28748000       0.04799000
   132  C          0.73898100       0.78748000       0.95201000
   133  C          0.25851800       0.34749000       0.02408000
   134  C          0.74148200       0.84749000       0.97592000
   135  C          0.33020000       0.38976000       0.08361300
   136  C          0.66980000       0.88976000       0.91638700
   137  C          0.40320000       0.37207000       0.16731100
   138  C          0.59680000       0.87207000       0.83268900
   139  C          0.40591900       0.31208000       0.19138000
   140  C          0.59408100       0.81208000       0.80862000
   141  C          0.38411600       0.19076000       0.35898000
   142  C          0.61588400       0.69076000       0.64102000
   143  C          0.21281500       0.18877000       0.35927000
   144  C          0.78718500       0.68877000       0.64073000
   145  C          0.13741100       0.19507000       0.44059000
   146  C          0.86258900       0.69507000       0.55941000
   147  C          0.23341600       0.20347000       0.52147000
   148  C          0.76658400       0.70347000       0.47853000
   149  C          0.40471500       0.20547000       0.52108000
   150  C          0.59528500       0.70547000       0.47892000
   151  C          0.48011100       0.19916000       0.43981000
   152  C          0.51988900       0.69916000       0.56019000
   153  H          0.21336700       0.25915600       0.00802500
   154  H          0.78663300       0.75915600      -0.00802500
   155  H          0.32807700       0.42984800       0.06757300
   156  H          0.67192300       0.92984800       0.93242700
   157  H          0.45107400       0.40024600       0.20721100
   158  H          0.54892600       0.90024600       0.79278900
   159  H          0.45521700       0.30009600       0.24725600
   160  H          0.54478300       0.80009600       0.75274400
   161  H          0.14852400       0.18304500       0.30511500
   162  H          0.85147600       0.68304500       0.69488500
   163  H          0.18302300       0.20768200       0.57569100
   164  H          0.81697700       0.70768200       0.42430900
   165  H          0.46897800       0.21105700       0.57516700
   166  H          0.53102200       0.71105700       0.42483300
   167  H          0.59470800       0.20042600       0.43961300
   168  H          0.40529200       0.70042600       0.56038700
   169  S          0.61208000       0.04424000       0.40584000
   170  S          0.38792000       0.54424000       0.59416000
   171  S          0.77488000       0.05864000       0.51324000
   172  S          0.22512000       0.55864000       0.48676000
   173  O          0.41630000       0.90648900       0.14351500
   174  O          0.58370000       0.40648900       0.85648500
   175  O          0.49830000       0.81709000       0.16511400
   176  O          0.50170000       0.31709000       0.83488600
   177  O          0.15481900       0.06928000       0.61471100
   178  O          0.84518100       0.56928000       0.38528900
   179  O          0.16701900       0.04859000       0.75671000
   180  O          0.83298100       0.54859000       0.24329000
   181  N          0.48030000       0.86998700       0.19131900
   182  N          0.51970000       0.36998700       0.80868100
   183  N          0.23130000       0.05711000       0.68921500
   184  N          0.76870000       0.55711000       0.31078500
   185  C          0.62920000       0.96704000       0.38351200
   186  C          0.37080000       0.46704000       0.61648800
   187  C          0.55911700       0.94863000       0.29941000
   188  C          0.44088300       0.44863000       0.70059000
   189  C          0.56091800       0.88862000       0.27568000
   190  C          0.43908200       0.38862000       0.72432000
   191  C          0.63320000       0.84694000       0.33601200
   192  C          0.36680000       0.34694000       0.66398800
   193  C          0.70341900       0.86533000       0.42011100
   194  C          0.29658100       0.36533000       0.57988900
   195  C          0.70161800       0.92532000       0.44398000
   196  C          0.29838200       0.42532000       0.55602000
   197  C          0.66181800       0.05157000       0.61118000
   198  C          0.33818200       0.55157000       0.38882000
   199  C          0.49051800       0.05658000       0.60658000
   200  C          0.50948200       0.55658000       0.39342000
   201  C          0.40571200       0.04868000       0.68431000
   202  C          0.59428800       0.54868000       0.31569000
   203  C          0.49221800       0.03578000       0.76678000
   204  C          0.50778200       0.53578000       0.23322000
   205  C          0.66351800       0.03077000       0.77138000
   206  C          0.33648200       0.53077000       0.22862000
   207  C          0.74831200       0.03866000       0.69361100
   208  C          0.25168800       0.53866000       0.30638900
   209  H          0.51080000       0.97657900       0.25898500
   210  H          0.48920000       0.47657900       0.74101500
   211  H          0.63426600       0.80685800       0.32009600
   212  H          0.36573400       0.30685800       0.67990400
   213  H          0.75165100       0.83748500       0.46048900
   214  H          0.24834900       0.33748500       0.53951100
   215  H          0.74860800       0.93766000       0.50012800
   216  H          0.25139200       0.43766000       0.49987200
   217  H          0.43261900       0.06519000       0.55131400
   218  H          0.56738100       0.56519000       0.44868600
   219  H          0.43547000       0.03043800       0.81872900
   220  H          0.56453000       0.53043800       0.18127100
   221  H          0.72136600       0.02205300       0.82649800
   222  H          0.27863400       0.52205300       0.17350200
   223  H          0.86289000       0.03523600       0.69667500
   224  H          0.13711000       0.53523600       0.30332500
