data_FUGQUT01
_symmetry_space_group_name_H-M    'P1'
_symmetry_Int_Tables_number       1
loop_
_symmetry_equiv_pos_site_id
_symmetry_equiv_pos_as_xyz
1 x,y,z
_cell_length_a                   8.126217
_cell_length_b                   26.9524
_cell_length_c                   12.633519
_cell_angle_alpha                90.0
_cell_angle_beta                 105.21419
_cell_angle_gamma                90.0
loop_
_atom_site_label
_atom_site_type_symbol
_atom_site_fract_x
_atom_site_fract_y
_atom_site_fract_z
     1  S          0.11835000       0.07077150       0.19903000
     2  S          0.88165000       0.57077150       0.80097000
     3  S          0.29945000       0.03008150       0.30273000
     4  S          0.70055000       0.53008150       0.69727000
     5  O          0.67441500       0.06235000       0.04959000
     6  O          0.32558500       0.56235000       0.95041000
     7  O          0.60081600       0.08695000       0.88211000
     8  O          0.39918400       0.58695000       0.11789000
     9  O          0.86138500       0.91545000       0.01368000
    10  O          0.13861500       0.41545000       0.98632000
    11  O          0.90238300       0.84045000       0.06809000
    12  O          0.09761700       0.34045000       0.93191000
    13  N          0.56491800       0.07735000       0.96658900
    14  N          0.43508200       0.57735000       0.03341100
    15  N          0.94380000       0.88615000       0.07851100
    16  N          0.05620000       0.38615000       0.92148900
    17  C          0.39161900       0.08175000       0.97421000
    18  C          0.60838100       0.58175000       0.02579000
    19  C          0.35201600       0.07265000       0.07361000
    20  C          0.64798400       0.57265000       0.92639000
    21  C          0.18620000       0.07805000       0.07521100
    22  C          0.81380000       0.57805000       0.92478900
    23  C          0.06120000       0.09036000       0.98218700
    24  C          0.93880000       0.59036000       0.01781300
    25  C          0.10120000       0.09847000       0.88628700
    26  C          0.89880000       0.59847000       0.11371300
    27  C          0.27120000       0.09545000       0.88278900
    28  C          0.72880000       0.59545000       0.11721100
    29  C          0.24001700       0.96715000       0.27251000
    30  C          0.75998300       0.46715000       0.72749000
    31  C          0.11411700       0.95175000       0.18239000
    32  C          0.88588300       0.45175000       0.81761000
    33  C          0.07820000       0.90194000       0.17111200
    34  C          0.92180000       0.40194000       0.82888800
    35  C          0.16420000       0.86724000       0.24881200
    36  C          0.83580000       0.36724000       0.75118800
    37  C          0.29320000       0.88403000       0.33451400
    38  C          0.70680000       0.38403000       0.66548600
    39  C          0.32620000       0.93244000       0.35111100
    40  C          0.67380000       0.43244000       0.64888900
    41  H          0.43554700       0.06331900       0.13599400
    42  H          0.56445300       0.56331900       0.86400600
    43  H          0.94819000       0.09309400       0.98520400
    44  H          0.05181000       0.59309400       0.01479600
    45  H          0.01625800       0.10596300       0.82321800
    46  H         -0.01625800       0.60596300       0.17678200
    47  H          0.30137300       0.10261000       0.81840900
    48  H          0.69862700       0.60261000       0.18159100
    49  H          0.05547800       0.97453200       0.13059400
    50  H          0.94452200       0.47453200       0.86940600
    51  H          0.13377900       0.83386000       0.24247000
    52  H          0.86622100       0.33386000       0.75753000
    53  H          0.35935500       0.86123000       0.38229200
    54  H          0.64064500       0.36123000       0.61770800
    55  H          0.40464500       0.94315100       0.41431100
    56  H          0.59535500       0.44315100       0.58568900
    57  S          0.70915000       0.20871160       0.00183000
    58  S          0.29085000       0.70871160      -0.00183000
    59  S          0.91364000       0.19713150       0.12853000
    60  S          0.08636000       0.69713150       0.87147000
    61  O          0.28531500       0.22586000       0.88228900
    62  O          0.71468500       0.72586000       0.11771100
    63  O          0.21791900       0.24006000       0.70938900
    64  O          0.78208100       0.74006000       0.29061100
    65  O          0.33661900       0.26497000       0.47691100
    66  O          0.66338100       0.76497000       0.52308900
    67  O          0.35020000       0.34827000       0.45271300
    68  O          0.64980000       0.84827000       0.54728700
    69  N          0.18320000       0.23206000       0.79438800
    70  N          0.81680000       0.73206000       0.20561200
    71  N          0.31120000       0.30619000       0.43541400
    72  N          0.68880000       0.80619000       0.56458600
    73  C          0.78980000       0.21985000       0.88508900
    74  C          0.21020000       0.71985000       0.11491100
    75  C          0.95880000       0.22105000       0.88668700
    76  C          0.04120000       0.72105000       0.11331300
    77  C          0.00220000       0.22965000       0.79248800
    78  C         -0.00220000       0.72965000       0.20751200
    79  C          0.88480000       0.23555000       0.69328800
    80  C          0.11520000       0.73555000       0.30671200
    81  C          0.70570000       0.23597000       0.69398500
    82  C          0.29430000       0.73597000       0.30601500
    83  C          0.66780000       0.22777000       0.78808700
    84  C          0.33220000       0.72777000       0.21191300
    85  C         -0.01761900       0.25596000       0.18491000
    86  C          0.01761900       0.75596000       0.81509000
    87  C          0.10820000       0.25797000       0.28341100
    88  C          0.89180000       0.75797000       0.71658900
    89  C          0.16320000       0.30619000       0.32491100
    90  C          0.83680000       0.80619000       0.67508900
    91  C          0.09820000       0.34939000       0.27851300
    92  C          0.90180000       0.84939000       0.72148700
    93  C          0.97680000       0.34517000       0.17791300
    94  C          0.02320000       0.84517000       0.82208700
    95  C          0.92080000       0.30096000       0.13421200
    96  C          0.07920000       0.80096000       0.86578800
    97  H          0.04324500       0.21595900       0.95179600
    98  H          0.95675500       0.71595900       0.04820400
    99  H          0.91817500       0.23913700       0.62869400
   100  H          0.08182500       0.73913700       0.37130600
   101  H          0.62140100       0.24167500       0.62983900
   102  H          0.37859900       0.74167500       0.37016100
   103  H          0.55330200       0.22736700       0.78853500
   104  H          0.44669800       0.72736700       0.21146500
   105  H          0.15380500       0.22923000       0.32063000
   106  H          0.84619500       0.72923000       0.67937000
   107  H          0.13212700       0.37983700       0.31142200
   108  H          0.86787300       0.87983700       0.68857800
   109  H          0.93359100       0.37384700       0.13983500
   110  H          0.06640900       0.87384700       0.86016500
   111  H          0.83802600       0.30010400       0.06765100
   112  H          0.16197400       0.80010400       0.93234900
   113  S          0.45725000       0.18855150       0.19753000
   114  S          0.54275000       0.68855150       0.80247000
   115  S          0.64405000       0.14871150       0.29943000
   116  S          0.35595000       0.64871150       0.70057000
   117  O          0.87891800       0.30776000       0.48029000
   118  O          0.12108200       0.80776000       0.51971000
   119  O          0.81420000       0.38475000       0.41621100
   120  O          0.18580000       0.88475000       0.58378900
   121  O          0.08911500       0.15276000       0.44901000
   122  O          0.91088500       0.65276000       0.55099000
   123  O          0.16061600       0.12536000       0.61701000
   124  O          0.83938400       0.62536000       0.38299000
   125  N          0.80801900       0.34057000       0.41911000
   126  N          0.19198100       0.84057000       0.58089000
   127  N          0.19520000       0.13856000       0.53151300
   128  N          0.80480000       0.63856000       0.46848700
   129  C          0.51620000       0.25026000       0.22211100
   130  C          0.48380000       0.75026000       0.77788900
   131  C          0.63911900       0.26806000       0.31281100
   132  C          0.36088100       0.76806000       0.68718900
   133  C          0.67120000       0.31986000       0.32261100
   134  C          0.32880000       0.81986000       0.67738900
   135  C          0.57720000       0.35337000       0.25241200
   136  C          0.42280000       0.85337000       0.74758800
   137  C          0.45620000       0.33727000       0.16271500
   138  C          0.54380000       0.83727000       0.83728500
   139  C          0.42220000       0.28567000       0.15041300
   140  C          0.57780000       0.78567000       0.84958700
   141  C          0.57620000       0.14105000       0.42081100
   142  C          0.42380000       0.64105000       0.57918900
   143  C          0.41051700       0.14425000       0.42851000
   144  C          0.58948300       0.64425000       0.57149000
   145  C          0.37320000       0.13425000       0.52751000
   146  C          0.62680000       0.63425000       0.47249000
   147  C          0.49620000       0.11926000       0.61821100
   148  C          0.50380000       0.61926000       0.38178900
   149  C          0.65820000       0.11467000       0.60981300
   150  C          0.34180000       0.61467000       0.39018700
   151  C          0.70820000       0.12506000       0.51131200
   152  C          0.29180000       0.62506000       0.48868800
   153  H          0.69962400       0.24624300       0.36610000
   154  H          0.30037600       0.74624300       0.63390000
   155  H          0.59524900       0.38713300       0.26518200
   156  H          0.40475100       0.88713300       0.73481800
   157  H          0.39622200       0.35957000       0.11051900
   158  H          0.60377800       0.85957000       0.88948100
   159  H          0.33356100       0.27486000       0.09207200
   160  H          0.66643900       0.77486000       0.90792800
   161  H          0.32373400       0.15308700       0.36735500
   162  H          0.67626600       0.65308700       0.63264500
   163  H          0.46848000       0.11239400       0.68374700
   164  H          0.53152000       0.61239400       0.31625300
   165  H          0.74203000       0.10423600       0.67118100
   166  H          0.25797000       0.60423600       0.32881900
   167  H          0.81952400       0.12143500       0.50714100
   168  H          0.18047600       0.62143500       0.49285900
   169  S          0.82586000       0.01625150       0.35833000
   170  S          0.17414000       0.51625150       0.64167000
   171  S          0.03095000       0.00543160       0.48753000
   172  S          0.96905000       0.50543160       0.51247000
   173  O          0.39720000       0.94743000       0.01511200
   174  O          0.60280000       0.44743000       0.98488800
   175  O          0.36620000       0.86752000       0.03291300
   176  O          0.63380000       0.36752000       0.96708700
   177  O          0.45271700       0.99023000       0.60551100
   178  O          0.54728300       0.49023000       0.39448900
   179  O          0.51961700       0.98024000       0.78791000
   180  O          0.48038300       0.48024000       0.21209000
   181  N          0.43630000       0.90621000       0.05971600
   182  N          0.56370000       0.40621000       0.94028400
   183  N          0.55720000       0.98675000       0.69801200
   184  N          0.44280000       0.48675000       0.30198800
   185  C          0.76231900       0.95604000       0.30641000
   186  C          0.23768100       0.45604000       0.69359000
   187  C          0.63820000       0.95493000       0.20441100
   188  C          0.36180000       0.45493000       0.79558900
   189  C          0.57720000       0.91062000       0.16401300
   190  C          0.42280000       0.41062000       0.83598700
   191  C          0.62520000       0.86622000       0.21691400
   192  C          0.37480000       0.36622000       0.78308600
   193  C          0.75220000       0.86693000       0.31331300
   194  C          0.24780000       0.36693000       0.68668700
   195  C          0.81551900       0.91244000       0.36061000
   196  C          0.18448100       0.41244000       0.63939000
   197  C          0.95020000      -0.00475000       0.60101000
   198  C          0.04980000       0.49525000       0.39899000
   199  C          0.78220000       0.99375000       0.60031100
   200  C          0.21780000       0.49375000       0.39968900
   201  C          0.73620000       0.98735000       0.69831100
   202  C          0.26380000       0.48735000       0.30168900
   203  C          0.85820000       0.98165000       0.79731000
   204  C          0.14180000       0.48165000       0.20269000
   205  C          0.02120000       0.98262000       0.79801200
   206  C         -0.02120000       0.48262000       0.20198800
   207  C          0.07220000       0.98964000       0.70141300
   208  C          0.92780000       0.48964000       0.29858700
   209  H          0.60033200       0.98414100       0.16643800
   210  H          0.39966800       0.48414100       0.83356200
   211  H          0.57314900       0.83668600       0.18833300
   212  H          0.42685100       0.33668600       0.81166700
   213  H          0.79537000       0.83742800       0.34710900
   214  H          0.20463000       0.33742800       0.65289100
   215  H          0.89406600       0.91311600       0.42897100
   216  H          0.10593400       0.41311600       0.57102900
   217  H          0.69868500      -0.00303600       0.53455000
   218  H          0.30131500       0.49696400       0.46545000
   219  H          0.82579800       0.97725500       0.86205300
   220  H          0.17420200       0.47725500       0.13794700
   221  H          0.10391200       0.97859500       0.86409800
   222  H          0.89608800       0.47859500       0.13590200
   223  H          0.18766200       0.99059700       0.70406500
   224  H          0.81233800       0.49059700       0.29593500
