data_FUGQUT
_symmetry_space_group_name_H-M    'P1'
_symmetry_Int_Tables_number       1
loop_
_symmetry_equiv_pos_site_id
_symmetry_equiv_pos_as_xyz
1 x,y,z
_cell_length_a                   13.67319
_cell_length_b                   8.90786
_cell_length_c                   12.45398
_cell_angle_alpha                90.0
_cell_angle_beta                 120.07001
_cell_angle_gamma                90.0
loop_
_atom_site_label
_atom_site_type_symbol
_atom_site_fract_x
_atom_site_fract_y
_atom_site_fract_z
     1  S          0.02628400       0.33466600       0.18704400
     2  S          0.52628400       0.83466600       0.18704400
     3  S          0.97371600       0.33466600       0.31295600
     4  S          0.47371600       0.83466600       0.31295600
     5  S          0.97371600       0.66533400       0.81295600
     6  S          0.47371600       0.16533400       0.81295600
     7  S          0.02628400       0.66533400       0.68704400
     8  S          0.52628400       0.16533400       0.68704400
     9  C          0.93527870       0.20792000       0.06750140
    10  C          0.43527870       0.70792000       0.06750140
    11  C          0.06472130       0.20792000       0.43249860
    12  C          0.56472130       0.70792000       0.43249860
    13  C          0.06472130       0.79208000       0.93249860
    14  C          0.56472130       0.29208000       0.93249860
    15  C          0.93527870       0.79208000       0.56750140
    16  C          0.43527870       0.29208000       0.56750140
    17  C          0.85775870       0.11524190       0.07274140
    18  C          0.35775870       0.61524190       0.07274140
    19  C          0.14224130       0.11524190       0.42725860
    20  C          0.64224130       0.61524190       0.42725860
    21  C          0.14224130       0.88475810       0.92725860
    22  C          0.64224130       0.38475810       0.92725860
    23  C          0.85775870       0.88475810       0.57274140
    24  C          0.35775870       0.38475810       0.57274140
    25  C          0.79232870       0.02443190       0.97126860
    26  C          0.29232870       0.52443190       0.97126860
    27  C          0.20767130       0.02443190       0.52873140
    28  C          0.70767130       0.52443190       0.52873140
    29  C          0.20767130       0.97556810       0.02873140
    30  C          0.70767130       0.47556810       0.02873140
    31  C          0.79232870       0.97556810       0.47126860
    32  C          0.29232870       0.47556810       0.47126860
    33  N          0.70660880       0.92858830       0.97501860
    34  N          0.20660880       0.42858830       0.97501860
    35  N          0.29339120       0.92858830       0.52498140
    36  N          0.79339120       0.42858830       0.52498140
    37  N          0.29339120       0.07141170       0.02498140
    38  N          0.79339120       0.57141170       0.02498140
    39  N          0.70660880       0.07141170       0.47501860
    40  N          0.20660880       0.57141170       0.47501860
    41  O          0.65188870       0.84355830       0.88795860
    42  O          0.15188870       0.34355830       0.88795860
    43  O          0.34811130       0.84355830       0.61204140
    44  O          0.84811130       0.34355830       0.61204140
    45  O          0.34811130       0.15644170       0.11204140
    46  O          0.84811130       0.65644170       0.11204140
    47  O          0.65188870       0.15644170       0.38795860
    48  O          0.15188870       0.65644170       0.38795860
    49  O          0.69265880       0.93862820       0.06422120
    50  O          0.19265880       0.43862820       0.06422120
    51  O          0.30734120       0.93862820       0.43577880
    52  O          0.80734120       0.43862820       0.43577880
    53  O          0.30734120       0.06137180       0.93577880
    54  O          0.80734120       0.56137180       0.93577880
    55  O          0.69265880       0.06137180       0.56422120
    56  O          0.19265880       0.56137180       0.56422120
    57  C          0.80193860       0.02282000       0.86643850
    58  C          0.30193860       0.52282000       0.86643850
    59  C          0.19806140       0.02282000       0.63356150
    60  C          0.69806140       0.52282000       0.63356150
    61  C          0.19806140       0.97718000       0.13356150
    62  C          0.69806140       0.47718000       0.13356150
    63  C          0.80193860       0.97718000       0.36643850
    64  C          0.30193860       0.47718000       0.36643850
    65  C          0.87927830       0.11802000       0.86282840
    66  C          0.37927830       0.61802000       0.86282840
    67  C          0.12072170       0.11802000       0.63717160
    68  C          0.62072170       0.61802000       0.63717160
    69  C          0.12072170       0.88198000       0.13717160
    70  C          0.62072170       0.38198000       0.13717160
    71  C          0.87927830       0.88198000       0.36282840
    72  C          0.37927830       0.38198000       0.36282840
    73  C          0.94589850       0.21042000       0.96142840
    74  C          0.44589850       0.71042000       0.96142840
    75  C          0.05410150       0.21042000       0.53857160
    76  C          0.55410150       0.71042000       0.53857160
    77  C          0.05410150       0.78958000       0.03857160
    78  C          0.55410150       0.28958000       0.03857160
    79  C          0.94589850       0.78958000       0.46142840
    80  C          0.44589850       0.28958000       0.46142840
    81  H          0.84930000       0.11340000       0.14230000
    82  H          0.34930000       0.61340000       0.14230000
    83  H          0.15070000       0.11340000       0.35770000
    84  H          0.65070000       0.61340000       0.35770000
    85  H          0.15070000       0.88660000       0.85770000
    86  H          0.65070000       0.38660000       0.85770000
    87  H          0.84930000       0.88660000       0.64230000
    88  H          0.34930000       0.38660000       0.64230000
    89  H          0.75760000       0.95940000       0.80030000
    90  H          0.25760000       0.45940000       0.80030000
    91  H          0.24240000       0.95940000       0.69970000
    92  H          0.74240000       0.45940000       0.69970000
    93  H          0.24240000       0.04060000       0.19970000
    94  H          0.74240000       0.54060000       0.19970000
    95  H          0.75760000       0.04060000       0.30030000
    96  H          0.25760000       0.54060000       0.30030000
    97  H          0.88670000       0.12010000       0.79260000
    98  H          0.38670000       0.62010000       0.79260000
    99  H          0.11330000       0.12010000       0.70740000
   100  H          0.61330000       0.62010000       0.70740000
   101  H          0.11330000       0.87990000       0.20740000
   102  H          0.61330000       0.37990000       0.20740000
   103  H          0.88670000       0.87990000       0.29260000
   104  H          0.38670000       0.37990000       0.29260000
   105  H         -0.00220000       0.27430000       0.95760000
   106  H          0.49780000       0.77430000       0.95760000
   107  H          0.00220000       0.27430000       0.54240000
   108  H          0.50220000       0.77430000       0.54240000
   109  H          0.00220000       0.72570000       0.04240000
   110  H          0.50220000       0.22570000       0.04240000
   111  H         -0.00220000       0.72570000       0.45760000
   112  H          0.49780000       0.22570000       0.45760000
