data_FURDCB05
_symmetry_space_group_name_H-M    'P1'
_symmetry_Int_Tables_number       1
loop_
_symmetry_equiv_pos_site_id
_symmetry_equiv_pos_as_xyz
1 x,y,z
_cell_length_a                   7.39182
_cell_length_b                   12.74043
_cell_length_c                   14.41744
_cell_angle_alpha                86.8772
_cell_angle_beta                 75.1772
_cell_angle_gamma                77.6962
loop_
_atom_site_label
_atom_site_type_symbol
_atom_site_fract_x
_atom_site_fract_y
_atom_site_fract_z
     1  O          0.68823000       0.91493850       0.03985130
     2  O          0.31177000       0.08506150       0.96014870
     3  O          0.62263000       0.02046140       0.16355130
     4  O          0.37737000       0.97953860       0.83644870
     5  O          0.47333000       0.01383140       0.34282120
     6  O          0.52667000       0.98616860       0.65717880
     7  O          0.31463000       0.90885850       0.44543130
     8  O          0.68537000       0.09114150       0.55456870
     9  O          0.46973000       0.68609860       0.22780130
    10  O          0.53027000       0.31390140       0.77219870
    11  C          0.62264000       0.93013810       0.12636160
    12  C          0.37736000       0.06986190       0.87363840
    13  C          0.41624000       0.92953820       0.36155160
    14  C          0.58376000       0.07046180       0.63844840
    15  C          0.54854000       0.74814810       0.15535180
    16  C          0.45146000       0.25185190       0.84464820
    17  H          0.59712900       0.72664100       0.09162300
    18  H          0.40287100       0.27335900       0.90837700
    19  C          0.54623000       0.84556830       0.18909160
    20  C          0.45377000       0.15443170       0.81090840
    21  C          0.45753000       0.84378830       0.29043160
    22  C          0.54247000       0.15621170       0.70956840
    23  C          0.41464000       0.74548810       0.30906180
    24  C          0.58536000       0.25451190       0.69093820
    25  H          0.35559000       0.72203900       0.36919200
    26  H          0.64441000       0.27796100       0.63080800
    27  H          0.57160000       0.02730000       0.23230000
    28  H          0.42840000       0.97270000       0.76770000
    29  H          0.26360000       0.97460000       0.49530000
    30  H          0.73640000       0.02540000       0.50470000
    31  O          0.18893000       0.08852150       0.54662120
    32  O          0.81107000       0.91147850       0.45337880
    33  O          0.04103000       0.98054860       0.64720130
    34  O          0.95897000       0.01945140       0.35279870
    35  O          0.88517000       0.97739860       0.82653130
    36  O          0.11483000       0.02260140       0.17346870
    37  O          0.81857000       0.08188160       0.95364130
    38  O          0.18143000       0.91811840       0.04635870
    39  O          0.03123000       0.30999140       0.76839130
    40  O          0.96877000       0.69000860       0.23160870
    41  C          0.09694000       0.07139180       0.62722160
    42  C          0.90306000       0.92860820       0.37277840
    43  C          0.88546000       0.06262190       0.86287160
    44  C          0.11454000       0.93737810       0.13712840
    45  C          0.08744000       0.25165190       0.68662180
    46  C          0.91256000       0.74834810       0.31337820
    47  H          0.14495200       0.27640900       0.62677000
    48  H          0.85504800       0.72359100       0.37323000
    49  C          0.04843000       0.15242170       0.70375160
    50  C          0.95157000       0.84757830       0.29624840
    51  C          0.95967000       0.14960180       0.80551160
    52  C          0.04033000       0.85039820       0.19448840
    53  C          0.95416000       0.24722190       0.83973180
    54  C          0.04584000       0.75277810       0.16026820
    55  H          0.90438300       0.26827200       0.90352000
    56  H          0.09561700       0.73172800       0.09648000
    57  H          0.96630000       0.97660000       0.71930000
    58  H          0.03370000       0.02340000       0.28070000
    59  H          0.77550000       0.02530000       0.97730000
    60  H          0.22450000       0.97470000       0.02270000
    61  O          0.73743000       0.59358150       0.94689130
    62  O          0.26257000       0.40641850       0.05310870
    63  O          0.68793000       0.48514140       0.84731130
    64  O          0.31207000       0.51485860       0.15268870
    65  O          0.71243000       0.48032140       0.66838130
    66  O          0.28757000       0.51967860       0.33161870
    67  O          0.76943000       0.58450160       0.54089130
    68  O          0.23057000       0.41549840       0.45910870
    69  O          0.80303000       0.81338130       0.72403130
    70  O          0.19697000       0.18661870       0.27596870
    71  C          0.72554000       0.57589180       0.86662170
    72  C          0.27446000       0.42410820       0.13337830
    73  C          0.74794000       0.56548190       0.63163160
    74  C          0.25206000       0.43451810       0.36836840
    75  C          0.77774000       0.75558190       0.80631170
    76  C          0.22226000       0.24441810       0.19368830
    77  H          0.77699900       0.78045700       0.86589400
    78  H          0.22300100       0.21954300       0.13410600
    79  C          0.75373000       0.65650170       0.78965150
    80  C          0.24627000       0.34349830       0.21034850
    81  C          0.76573000       0.65321180       0.68849150
    82  C          0.23427000       0.34678820       0.31150850
    83  C          0.79534000       0.75032000       0.65323180
    84  C          0.20466000       0.24968000       0.34676820
    85  H          0.80849000       0.77089100       0.58935400
    86  H          0.19151000       0.22910900       0.41064600
    87  H          0.69460000       0.47730000       0.77130000
    88  H          0.30540000       0.52270000       0.22870000
    89  H          0.75650000       0.52930000       0.51730000
    90  H          0.24350000       0.47070000       0.48270000
    91  O          0.72473000       0.41742150       0.45443130
    92  O          0.27527000       0.58257850       0.54556870
    93  O          0.78693000       0.52323150       0.33133140
    94  O          0.21307000       0.47676850       0.66866860
    95  O          0.81663000       0.51817140       0.15136130
    96  O          0.18337000       0.48182860       0.84863870
    97  O          0.76334000       0.41339160       0.04765130
    98  O          0.23666000       0.58660840       0.95234870
    99  O          0.69953000       0.18984140       0.26430130
   100  O          0.30047000       0.81015860       0.73569870
   101  C          0.74824000       0.43301190       0.36790170
   102  C          0.25176000       0.56698810       0.63209830
   103  C          0.77994000       0.43377180       0.13229160
   104  C          0.22006000       0.56622820       0.86770840
   105  C          0.70444000       0.25164190       0.33707180
   106  C          0.29556000       0.74835810       0.66292820
   107  H          0.68860700       0.22964400       0.40069600
   108  H          0.31139300       0.77035600       0.59930400
   109  C          0.73523000       0.34919170       0.30468160
   110  C          0.26477000       0.65080830       0.69531840
   111  C          0.74953000       0.34775170       0.20262150
   112  C          0.25047000       0.65224830       0.79737850
   113  C          0.72654000       0.24966190       0.18333180
   114  C          0.27346000       0.75033810       0.81666820
   115  H          0.72893000       0.22641700       0.12290700
   116  H          0.27107000       0.77358300       0.87709300
   117  H          0.80470000       0.51940000       0.26040000
   118  H          0.19530000       0.48060000       0.73960000
   119  H          0.76250000       0.47230000       0.01930000
   120  H          0.23750000       0.52770000       0.98070000
