data_FURDCB01
_symmetry_space_group_name_H-M    'P1'
_symmetry_Int_Tables_number       1
loop_
_symmetry_equiv_pos_site_id
_symmetry_equiv_pos_as_xyz
1 x,y,z
_cell_length_a                   6.0072
_cell_length_b                   14.4405
_cell_length_c                   7.1912
_cell_angle_alpha                90.0
_cell_angle_beta                 91.462
_cell_angle_gamma                90.0
loop_
_atom_site_label
_atom_site_type_symbol
_atom_site_fract_x
_atom_site_fract_y
_atom_site_fract_z
     1  O          0.62492100       0.24473300       0.48431900
     2  O          0.37507900       0.74473300       0.01568100
     3  O          0.37507900       0.75526700       0.51568100
     4  O          0.62492100       0.25526700      -0.01568100
     5  C          0.49939130       0.16985500       0.43454120
     6  C          0.50060870       0.66985500       0.06545880
     7  C          0.50060870       0.83014500       0.56545880
     8  C          0.49939130       0.33014500       0.93454120
     9  C          0.50605130       0.32149500       0.43902120
    10  C          0.49394870       0.82149500       0.06097880
    11  C          0.49394870       0.67850500       0.56097880
    12  C          0.50605130       0.17850500       0.93902120
    13  C          0.30087130       0.19755500       0.35696110
    14  C          0.69912870       0.69755500       0.14303890
    15  C          0.69912870       0.80244500       0.64303890
    16  C          0.30087130       0.30244500       0.85696110
    17  C          0.30532120       0.29809500       0.35954110
    18  C          0.69467880       0.79809500       0.14045890
    19  C          0.69467880       0.70190500       0.64045890
    20  C          0.30532120       0.20190500       0.85954110
    21  C          0.12546130       0.13550500       0.28551110
    22  C          0.87453870       0.63550500       0.21448890
    23  C          0.87453870       0.86449500       0.71448890
    24  C          0.12546130       0.36449500       0.78551110
    25  C          0.14176130       0.36801500       0.29501110
    26  C          0.85823870       0.86801500       0.20498890
    27  C          0.85823870       0.63198500       0.70498890
    28  C          0.14176130       0.13198500       0.79501110
    29  O          0.95574900       0.16437400       0.20442900
    30  O          0.04425100       0.66437400       0.29557100
    31  O          0.04425100       0.83562600       0.79557100
    32  O          0.95574900       0.33562600       0.70442900
    33  O          0.95766900       0.34042400       0.20899900
    34  O          0.04233100       0.84042400       0.29100100
    35  O          0.04233100       0.65957600       0.79100100
    36  O          0.95766900       0.15957600       0.70899900
    37  O          0.16339110       0.04735400       0.31352100
    38  O          0.83660890       0.54735400       0.18647900
    39  O          0.83660890       0.95264600       0.68647900
    40  O          0.16339110       0.45264600       0.81352100
    41  O          0.17632110       0.45104400       0.31905100
    42  O          0.82367890       0.95104400       0.18094900
    43  O          0.82367890       0.54895600       0.68094900
    44  O          0.17632110       0.04895600       0.81905100
    45  H          0.56152100       0.11159000       0.45752000
    46  H          0.43847900       0.61159000       0.04248000
    47  H          0.43847900       0.88841000       0.54248000
    48  H          0.56152100       0.38841000       0.95752000
    49  H          0.57582100       0.37771000       0.46612000
    50  H          0.42417900       0.87771000       0.03388000
    51  H          0.42417900       0.62229000       0.53388000
    52  H          0.57582100       0.12229000       0.96612000
    53  H          0.95206800       0.26891200       0.19822700
    54  H          0.04793200       0.76891200       0.30177300
    55  H          0.04793200       0.73108800       0.80177300
    56  H          0.95206800       0.23108800       0.69822700
    57  H          0.03572600       0.01101000       0.26261900
    58  H          0.96427400       0.51101000       0.23738100
    59  H          0.96427400       0.98899000       0.73738100
    60  H          0.03572600       0.48899000       0.76261900
