data_FURDCB04
_symmetry_space_group_name_H-M    'P1'
_symmetry_Int_Tables_number       1
loop_
_symmetry_equiv_pos_site_id
_symmetry_equiv_pos_as_xyz
1 x,y,z
_cell_length_a                   6.89224
_cell_length_b                   14.34017
_cell_length_c                   6.37384
_cell_angle_alpha                90.0
_cell_angle_beta                 90.0
_cell_angle_gamma                90.0
loop_
_atom_site_label
_atom_site_type_symbol
_atom_site_fract_x
_atom_site_fract_y
_atom_site_fract_z
     1  O          0.32956150       0.38323700       0.25000000
     2  O          0.67043850       0.61676300       0.75000000
     3  O          0.32956150       0.11676300       0.75000000
     4  O          0.67043850       0.88323700       0.25000000
     5  O          0.54201140       0.49857700       0.25000000
     6  O          0.45798860       0.50142300       0.75000000
     7  O          0.54201140       0.00142300       0.75000000
     8  O          0.45798860      -0.00142300       0.25000000
     9  O          0.54592140       0.67610700       0.25000000
    10  O          0.45407860       0.32389300       0.75000000
    11  O          0.54592140       0.82389300       0.75000000
    12  O          0.45407860       0.17610700       0.25000000
    13  O          0.33327140       0.78843600       0.25000000
    14  O          0.66672860       0.21156400       0.75000000
    15  O          0.33327140       0.71156400       0.75000000
    16  O          0.66672860       0.28843600       0.25000000
    17  O          0.90359850       0.58446500       0.25000000
    18  O          0.09640150       0.41553500       0.75000000
    19  O          0.90359850       0.91553500       0.75000000
    20  O          0.09640150       0.08446500       0.25000000
    21  C          0.37465180       0.47149900       0.25000000
    22  C          0.62534820       0.52850100       0.75000000
    23  C          0.37465180       0.02850100       0.75000000
    24  C          0.62534820       0.97149900       0.25000000
    25  C          0.36557170       0.70508900       0.25000000
    26  C          0.63442830       0.29491100       0.75000000
    27  C          0.36557170       0.79491100       0.75000000
    28  C          0.63442830       0.20508900       0.25000000
    29  C          0.02008180       0.50870900       0.25000000
    30  C         -0.02008180       0.49129100       0.75000000
    31  C          0.02008180      -0.00870900       0.75000000
    32  C         -0.02008180       0.00870900       0.25000000
    33  H          0.97696600       0.44724900       0.25000000
    34  H          0.02303400       0.55275100       0.75000000
    35  H          0.97696600       0.05275100       0.75000000
    36  H          0.02303400       0.94724900       0.25000000
    37  C          0.20921160       0.53524800       0.25000000
    38  C          0.79078840       0.46475200       0.75000000
    39  C          0.20921160       0.96475200       0.75000000
    40  C          0.79078840       0.03524800       0.25000000
    41  C          0.20828160       0.63547800       0.25000000
    42  C          0.79171840       0.36452200       0.75000000
    43  C          0.20828160       0.86452200       0.75000000
    44  C          0.79171840       0.13547800       0.25000000
    45  C          0.01941190       0.66082900       0.25000000
    46  C         -0.01941190       0.33917100       0.75000000
    47  C          0.01941190       0.83917100       0.75000000
    48  C         -0.01941190       0.16082900       0.25000000
    49  H          0.97514000       0.72208600       0.25000000
    50  H          0.02486000       0.27791400       0.75000000
    51  H          0.97514000       0.77791400       0.75000000
    52  H          0.02486000       0.22208600       0.25000000
    53  H          0.45230000       0.34831500       0.25000000
    54  H          0.54770000       0.65168500       0.75000000
    55  H          0.45230000       0.15168500       0.75000000
    56  H          0.54770000       0.84831500       0.25000000
    57  H          0.55040000       0.60481900       0.25000000
    58  H          0.44960000       0.39518100       0.75000000
    59  H          0.55040000       0.89518100       0.75000000
    60  H          0.44960000       0.10481900       0.25000000
