data_FURHUV18
_symmetry_space_group_name_H-M    'P1'
_symmetry_Int_Tables_number       1
loop_
_symmetry_equiv_pos_site_id
_symmetry_equiv_pos_as_xyz
1 x,y,z
_cell_length_a                   10.47008
_cell_length_b                   12.87239
_cell_length_c                   24.508719
_cell_angle_alpha                90.0
_cell_angle_beta                 90.0
_cell_angle_gamma                90.0
loop_
_atom_site_label
_atom_site_type_symbol
_atom_site_fract_x
_atom_site_fract_y
_atom_site_fract_z
     1  S          0.71406900       0.65772900       0.37949400
     2  S          0.03593100       0.09227100       0.37949400
     3  S          0.03593100       0.65772900       0.37050600
     4  S          0.71406900       0.09227100       0.37050600
     5  S          0.71406900       0.15772900       0.87949400
     6  S          0.03593100       0.59227100       0.87949400
     7  S          0.03593100       0.15772900       0.87050600
     8  S          0.71406900       0.59227100       0.87050600
     9  S          0.21406900       0.65772900       0.87949400
    10  S          0.53593100       0.09227100       0.87949400
    11  S          0.53593100       0.65772900       0.87050600
    12  S          0.21406900       0.09227100       0.87050600
    13  S          0.21406900       0.15772900       0.37949400
    14  S          0.53593100       0.59227100       0.37949400
    15  S          0.53593100       0.15772900       0.37050600
    16  S          0.21406900       0.59227100       0.37050600
    17  S          0.28593100       0.34227100       0.62050600
    18  S          0.96406900       0.90772900       0.62050600
    19  S          0.96406900       0.34227100       0.62949400
    20  S          0.28593100       0.90772900       0.62949400
    21  S          0.28593100       0.84227100       0.12050600
    22  S          0.96406900       0.40772900       0.12050600
    23  S          0.96406900       0.84227100       0.12949400
    24  S          0.28593100       0.40772900       0.12949400
    25  S          0.78593100       0.34227100       0.12050600
    26  S          0.46406900       0.90772900       0.12050600
    27  S          0.46406900       0.34227100       0.12949400
    28  S          0.78593100       0.90772900       0.12949400
    29  S          0.78593100       0.84227100       0.62050600
    30  S          0.46406900       0.40772900       0.62050600
    31  S          0.46406900       0.84227100       0.62949400
    32  S          0.78593100       0.40772900       0.62949400
    33  S          0.79285100       0.72980800       0.25406400
    34  S          0.95714900       0.02019200       0.25406400
    35  S          0.95714900       0.72980800       0.49593600
    36  S          0.79285100       0.02019200       0.49593600
    37  S          0.79285100       0.22980800       0.75406400
    38  S          0.95714900       0.52019200       0.75406400
    39  S          0.95714900       0.22980800      -0.00406400
    40  S          0.79285100       0.52019200      -0.00406400
    41  S          0.29285100       0.72980800       0.75406400
    42  S          0.45714900       0.02019200       0.75406400
    43  S          0.45714900       0.72980800      -0.00406400
    44  S          0.29285100       0.02019200      -0.00406400
    45  S          0.29285100       0.22980800       0.25406400
    46  S          0.45714900       0.52019200       0.25406400
    47  S          0.45714900       0.22980800       0.49593600
    48  S          0.29285100       0.52019200       0.49593600
    49  S          0.20714900       0.27019200       0.74593600
    50  S          0.04285100       0.97980800       0.74593600
    51  S          0.04285100       0.27019200       0.50406400
    52  S          0.20714900       0.97980800       0.50406400
    53  S          0.20714900       0.77019200       0.24593600
    54  S          0.04285100       0.47980800       0.24593600
    55  S          0.04285100       0.77019200       0.00406400
    56  S          0.20714900       0.47980800       0.00406400
    57  S          0.70714900       0.27019200       0.24593600
    58  S          0.54285100       0.97980800       0.24593600
    59  S          0.54285100       0.27019200       0.00406400
    60  S          0.70714900       0.97980800       0.00406400
    61  S          0.70714900       0.77019200       0.74593600
    62  S          0.54285100       0.47980800       0.74593600
    63  S          0.54285100       0.77019200       0.50406400
    64  S          0.70714900       0.47980800       0.50406400
    65  S          0.64418110       0.70276800       0.20140400
    66  S          0.10581890       0.04723200       0.20140400
    67  S          0.10581890       0.70276800       0.54859600
    68  S          0.64418110       0.04723200       0.54859600
    69  S          0.64418110       0.20276800       0.70140400
    70  S          0.10581890       0.54723200       0.70140400
    71  S          0.10581890       0.20276800       0.04859600
    72  S          0.64418110       0.54723200       0.04859600
    73  S          0.14418110       0.70276800       0.70140400
    74  S          0.60581890       0.04723200       0.70140400
    75  S          0.60581890       0.70276800       0.04859600
    76  S          0.14418110       0.04723200       0.04859600
    77  S          0.14418110       0.20276800       0.20140400
    78  S          0.60581890       0.54723200       0.20140400
    79  S          0.60581890       0.20276800       0.54859600
    80  S          0.14418110       0.54723200       0.54859600
    81  S          0.35581890       0.29723200       0.79859600
    82  S          0.89418110       0.95276800       0.79859600
    83  S          0.89418110       0.29723200       0.45140400
    84  S          0.35581890       0.95276800       0.45140400
    85  S          0.35581890       0.79723200       0.29859600
    86  S          0.89418110       0.45276800       0.29859600
    87  S          0.89418110       0.79723200       0.95140400
    88  S          0.35581890       0.45276800       0.95140400
    89  S          0.85581890       0.29723200       0.29859600
    90  S          0.39418110       0.95276800       0.29859600
    91  S          0.39418110       0.29723200       0.95140400
    92  S          0.85581890       0.95276800       0.95140400
    93  S          0.85581890       0.79723200       0.79859600
    94  S          0.39418110       0.45276800       0.79859600
    95  S          0.39418110       0.79723200       0.45140400
    96  S          0.85581890       0.45276800       0.45140400
    97  S          0.71593110       0.78039800       0.32617400
    98  S          0.03406890       0.96960200       0.32617400
    99  S          0.03406890       0.78039800       0.42382600
   100  S          0.71593110       0.96960200       0.42382600
   101  S          0.71593110       0.28039800       0.82617400
   102  S          0.03406890       0.46960200       0.82617400
   103  S          0.03406890       0.28039800       0.92382600
   104  S          0.71593110       0.46960200       0.92382600
   105  S          0.21593110       0.78039800       0.82617400
   106  S          0.53406890       0.96960200       0.82617400
   107  S          0.53406890       0.78039800       0.92382600
   108  S          0.21593110       0.96960200       0.92382600
   109  S          0.21593110       0.28039800       0.32617400
   110  S          0.53406890       0.46960200       0.32617400
   111  S          0.53406890       0.28039800       0.42382600
   112  S          0.21593110       0.46960200       0.42382600
   113  S          0.28406890       0.21960200       0.67382600
   114  S          0.96593110       0.03039800       0.67382600
   115  S          0.96593110       0.21960200       0.57617400
   116  S          0.28406890       0.03039800       0.57617400
   117  S          0.28406890       0.71960200       0.17382600
   118  S          0.96593110       0.53039800       0.17382600
   119  S          0.96593110       0.71960200       0.07617400
   120  S          0.28406890       0.53039800       0.07617400
   121  S          0.78406890       0.21960200       0.17382600
   122  S          0.46593110       0.03039800       0.17382600
   123  S          0.46593110       0.21960200       0.07617400
   124  S          0.78406890       0.03039800       0.07617400
   125  S          0.78406890       0.71960200       0.67382600
   126  S          0.46593110       0.53039800       0.67382600
   127  S          0.46593110       0.71960200       0.57617400
   128  S          0.78406890       0.53039800       0.57617400
