data_FURHUV10
_symmetry_space_group_name_H-M    'P1'
_symmetry_Int_Tables_number       1
loop_
_symmetry_equiv_pos_site_id
_symmetry_equiv_pos_as_xyz
1 x,y,z
_cell_length_a                   10.68328
_cell_length_b                   10.71357
_cell_length_c                   10.83531
_cell_angle_alpha                90.0
_cell_angle_beta                 95.6507
_cell_angle_gamma                90.0
loop_
_atom_site_label
_atom_site_type_symbol
_atom_site_fract_x
_atom_site_fract_y
_atom_site_fract_z
     1  S          0.21553000       0.15313000       0.96577000
     2  S          0.78447000       0.65313000       0.03423000
     3  S          0.04533000       0.45233000       0.17543000
     4  S          0.95467000       0.95233000       0.82457000
     5  S          0.04283000       0.24103000       0.95057000
     6  S          0.95717000       0.74103000       0.04943000
     7  S          0.07183000       0.42633000      -0.00843000
     8  S          0.92817000       0.92633000       0.00843000
     9  S          0.24223000       0.28073000       0.35723000
    10  S          0.75777000       0.78073000       0.64277000
    11  S          0.21863000       0.45393000       0.27623000
    12  S          0.78137000       0.95393000       0.72377000
    13  S          0.35413000       0.17713000       0.25283000
    14  S          0.64587000       0.67713000       0.74717000
    15  S          0.23773000       0.06663000       0.13633000
    16  S          0.76227000       0.56663000       0.86367000
    17  S          0.46073000       0.60803000       0.05983000
    18  S          0.53927000       0.10803000       0.94017000
    19  S          0.44693000       0.39733000       0.83507000
    20  S          0.55307000       0.89733000       0.16493000
    21  S          0.27003000       0.39683000       0.74047000
    22  S          0.72997000       0.89683000       0.25953000
    23  S          0.42763000       0.42223000       0.02083000
    24  S          0.57237000       0.92223000       0.97917000
    25  S          0.29083000       0.69993000       0.05143000
    26  S          0.70917000       0.19993000       0.94857000
    27  S          0.24673000       0.56923000       0.66107000
    28  S          0.75327000       0.06923000       0.33893000
    29  S          0.26163000       0.78433000       0.88177000
    30  S          0.73837000       0.28433000       0.11823000
    31  S          0.14033000       0.67603000       0.76867000
    32  S          0.85967000       0.17603000       0.23133000
    33  S          0.54667000       0.43723000       0.37533000
    34  S          0.45333000       0.93723000       0.62467000
    35  S          0.54507000       0.37834000       0.55583000
    36  S          0.45493000       0.87834000       0.44417000
    37  S          0.67377000       0.23793000       0.58843000
    38  S          0.32623000       0.73793000       0.41157000
    39  S          0.82587000       0.55523000       0.34033000
    40  S          0.17413000       0.05523000       0.65967000
    41  S          0.64887000       0.60003000       0.38263000
    42  S          0.35113000       0.10003000       0.61737000
    43  S          0.95707000       0.34853000       0.54433000
    44  S          0.04293000       0.84853000       0.45567000
    45  S          0.83737000       0.31073000       0.67573000
    46  S          0.16263000       0.81073000       0.32427000
    47  S          0.94117000       0.53523000       0.50303000
    48  S          0.05883000       0.03523000       0.49697000
