data_FURHUV11
_symmetry_space_group_name_H-M    'P1'
_symmetry_Int_Tables_number       1
loop_
_symmetry_equiv_pos_site_id
_symmetry_equiv_pos_as_xyz
1 x,y,z
_cell_length_a                   10.34399
_cell_length_b                   12.699811
_cell_length_c                   24.3782
_cell_angle_alpha                90.0
_cell_angle_beta                 90.0
_cell_angle_gamma                90.0
loop_
_atom_site_label
_atom_site_type_symbol
_atom_site_fract_x
_atom_site_fract_y
_atom_site_fract_z
     1  S          0.21496200       0.09113200       0.37028200
     2  S          0.03503800       0.15886800       0.37028200
     3  S          0.21496200       0.15886800       0.87971800
     4  S          0.03503800       0.09113200       0.87971800
     5  S          0.21496200       0.59113200       0.87028200
     6  S          0.03503800       0.65886800       0.87028200
     7  S          0.21496200       0.65886800       0.37971800
     8  S          0.03503800       0.59113200       0.37971800
     9  S          0.71496200       0.09113200       0.87028200
    10  S          0.53503800       0.15886800       0.87028200
    11  S          0.71496200       0.15886800       0.37971800
    12  S          0.53503800       0.09113200       0.37971800
    13  S          0.71496200       0.59113200       0.37028200
    14  S          0.53503800       0.65886800       0.37028200
    15  S          0.71496200       0.65886800       0.87971800
    16  S          0.53503800       0.59113200       0.87971800
    17  S          0.78503800       0.90886800       0.62971800
    18  S          0.96496200       0.84113200       0.62971800
    19  S          0.78503800       0.84113200       0.12028200
    20  S          0.96496200       0.90886800       0.12028200
    21  S          0.78503800       0.40886800       0.12971800
    22  S          0.96496200       0.34113200       0.12971800
    23  S          0.78503800       0.34113200       0.62028200
    24  S          0.96496200       0.40886800       0.62028200
    25  S          0.28503800       0.90886800       0.12971800
    26  S          0.46496200       0.84113200       0.12971800
    27  S          0.28503800       0.84113200       0.62028200
    28  S          0.46496200       0.90886800       0.62028200
    29  S          0.28503800       0.40886800       0.62971800
    30  S          0.46496200       0.34113200       0.62971800
    31  S          0.28503800       0.34113200       0.12028200
    32  S          0.46496200       0.40886800       0.12028200
    33  S          0.14413200       0.04588200       0.54976200
    34  S          0.10586800       0.20411800       0.54976200
    35  S          0.14413200       0.20411800       0.70023800
    36  S          0.10586800       0.04588200       0.70023800
    37  S          0.14413200       0.54588200       0.04976200
    38  S          0.10586800       0.70411800       0.04976200
    39  S          0.14413200       0.70411800       0.20023800
    40  S          0.10586800       0.54588200       0.20023800
    41  S          0.64413200       0.04588200       0.04976200
    42  S          0.60586800       0.20411800       0.04976200
    43  S          0.64413200       0.20411800       0.20023800
    44  S          0.60586800       0.04588200       0.20023800
    45  S          0.64413200       0.54588200       0.54976200
    46  S          0.60586800       0.70411800       0.54976200
    47  S          0.64413200       0.70411800       0.70023800
    48  S          0.60586800       0.54588200       0.70023800
    49  S          0.85586800       0.95411800       0.45023800
    50  S          0.89413200       0.79588200       0.45023800
    51  S          0.85586800       0.79588200       0.29976200
    52  S          0.89413200       0.95411800       0.29976200
    53  S          0.85586800       0.45411800       0.95023800
    54  S          0.89413200       0.29588200       0.95023800
    55  S          0.85586800       0.29588200       0.79976200
    56  S          0.89413200       0.45411800       0.79976200
    57  S          0.35586800       0.95411800       0.95023800
    58  S          0.39413200       0.79588200       0.95023800
    59  S          0.35586800       0.79588200       0.79976200
    60  S          0.39413200       0.95411800       0.79976200
    61  S          0.35586800       0.45411800       0.45023800
    62  S          0.39413200       0.29588200       0.45023800
    63  S          0.35586800       0.29588200       0.29976200
    64  S          0.39413200       0.45411800       0.29976200
    65  S          0.29449200       0.01827200       0.49664200
    66  S          0.95550800       0.23172800       0.49664200
    67  S          0.29449200       0.23172800       0.75335800
    68  S          0.95550800       0.01827200       0.75335800
    69  S          0.29449200       0.51827200      -0.00335800
    70  S          0.95550800       0.73172800      -0.00335800
    71  S          0.29449200       0.73172800       0.25335800
    72  S          0.95550800       0.51827200       0.25335800
    73  S          0.79449200       0.01827200      -0.00335800
    74  S          0.45550800       0.23172800      -0.00335800
    75  S          0.79449200       0.23172800       0.25335800
    76  S          0.45550800       0.01827200       0.25335800
    77  S          0.79449200       0.51827200       0.49664200
    78  S          0.45550800       0.73172800       0.49664200
    79  S          0.79449200       0.73172800       0.75335800
    80  S          0.45550800       0.51827200       0.75335800
    81  S          0.70550800       0.98172800       0.50335800
    82  S          0.04449200       0.76827200       0.50335800
    83  S          0.70550800       0.76827200       0.24664200
    84  S          0.04449200       0.98172800       0.24664200
    85  S          0.70550800       0.48172800       0.00335800
    86  S          0.04449200       0.26827200       0.00335800
    87  S          0.70550800       0.26827200       0.74664200
    88  S          0.04449200       0.48172800       0.74664200
    89  S          0.20550800       0.98172800       0.00335800
    90  S          0.54449200       0.76827200       0.00335800
    91  S          0.20550800       0.76827200       0.74664200
    92  S          0.54449200       0.98172800       0.74664200
    93  S          0.20550800       0.48172800       0.50335800
    94  S          0.54449200       0.26827200       0.50335800
    95  S          0.20550800       0.26827200       0.24664200
    96  S          0.54449200       0.48172800       0.24664200
    97  S          0.21570200       0.96693800       0.42414200
    98  S          0.03429800       0.28306200       0.42414200
    99  S          0.21570200       0.28306200       0.82585800
   100  S          0.03429800       0.96693800       0.82585800
   101  S          0.21570200       0.46693800       0.92414200
   102  S          0.03429800       0.78306200       0.92414200
   103  S          0.21570200       0.78306200       0.32585800
   104  S          0.03429800       0.46693800       0.32585800
   105  S          0.71570200       0.96693800       0.92414200
   106  S          0.53429800       0.28306200       0.92414200
   107  S          0.71570200       0.28306200       0.32585800
   108  S          0.53429800       0.96693800       0.32585800
   109  S          0.71570200       0.46693800       0.42414200
   110  S          0.53429800       0.78306200       0.42414200
   111  S          0.71570200       0.78306200       0.82585800
   112  S          0.53429800       0.46693800       0.82585800
   113  S          0.78429800       0.03306200       0.57585800
   114  S          0.96570200       0.71693800       0.57585800
   115  S          0.78429800       0.71693800       0.17414200
   116  S          0.96570200       0.03306200       0.17414200
   117  S          0.78429800       0.53306200       0.07585800
   118  S          0.96570200       0.21693800       0.07585800
   119  S          0.78429800       0.21693800       0.67414200
   120  S          0.96570200       0.53306200       0.67414200
   121  S          0.28429800       0.03306200       0.07585800
   122  S          0.46570200       0.71693800       0.07585800
   123  S          0.28429800       0.71693800       0.67414200
   124  S          0.46570200       0.03306200       0.67414200
   125  S          0.28429800       0.53306200       0.57585800
   126  S          0.46570200       0.21693800       0.57585800
   127  S          0.28429800       0.21693800       0.17414200
   128  S          0.46570200       0.53306200       0.17414200
