data_FURHUV13
_symmetry_space_group_name_H-M    'P1'
_symmetry_Int_Tables_number       1
loop_
_symmetry_equiv_pos_site_id
_symmetry_equiv_pos_as_xyz
1 x,y,z
_cell_length_a                   10.45749
_cell_length_b                   12.864113
_cell_length_c                   24.469319
_cell_angle_alpha                90.0
_cell_angle_beta                 90.0
_cell_angle_gamma                90.0
loop_
_atom_site_label
_atom_site_type_symbol
_atom_site_fract_x
_atom_site_fract_y
_atom_site_fract_z
     1  S          0.28593800       0.34227700       0.12050300
     2  S          0.96406200       0.90772300       0.12050300
     3  S          0.28593800       0.90772300       0.12949700
     4  S          0.96406200       0.34227700       0.12949700
     5  S          0.28593800       0.84227700       0.62050300
     6  S          0.96406200       0.40772300       0.62050300
     7  S          0.28593800       0.40772300       0.62949700
     8  S          0.96406200       0.84227700       0.62949700
     9  S          0.78593800       0.34227700       0.62050300
    10  S          0.46406200       0.90772300       0.62050300
    11  S          0.78593800       0.90772300       0.62949700
    12  S          0.46406200       0.34227700       0.62949700
    13  S          0.78593800       0.84227700       0.12050300
    14  S          0.46406200       0.40772300       0.12050300
    15  S          0.78593800       0.40772300       0.12949700
    16  S          0.46406200       0.84227700       0.12949700
    17  S          0.71406200       0.65772300       0.87949700
    18  S          0.03593800       0.09227700       0.87949700
    19  S          0.71406200       0.09227700       0.87050300
    20  S          0.03593800       0.65772300       0.87050300
    21  S          0.71406200       0.15772300       0.37949700
    22  S          0.03593800       0.59227700       0.37949700
    23  S          0.71406200       0.59227700       0.37050300
    24  S          0.03593800       0.15772300       0.37050300
    25  S          0.21406200       0.65772300       0.37949700
    26  S          0.53593800       0.09227700       0.37949700
    27  S          0.21406200       0.09227700       0.37050300
    28  S          0.53593800       0.65772300       0.37050300
    29  S          0.21406200       0.15772300       0.87949700
    30  S          0.53593800       0.59227700       0.87949700
    31  S          0.21406200       0.59227700       0.87050300
    32  S          0.53593800       0.15772300       0.87050300
    33  S          0.28427900       0.21957600       0.17374300
    34  S          0.96572100       0.03042400       0.17374300
    35  S          0.28427900       0.03042400       0.07625700
    36  S          0.96572100       0.21957600       0.07625700
    37  S          0.28427900       0.71957600       0.67374300
    38  S          0.96572100       0.53042400       0.67374300
    39  S          0.28427900       0.53042400       0.57625700
    40  S          0.96572100       0.71957600       0.57625700
    41  S          0.78427900       0.21957600       0.67374300
    42  S          0.46572100       0.03042400       0.67374300
    43  S          0.78427900       0.03042400       0.57625700
    44  S          0.46572100       0.21957600       0.57625700
    45  S          0.78427900       0.71957600       0.17374300
    46  S          0.46572100       0.53042400       0.17374300
    47  S          0.78427900       0.53042400       0.07625700
    48  S          0.46572100       0.71957600       0.07625700
    49  S          0.71572100       0.78042400       0.82625700
    50  S          0.03427900       0.96957600       0.82625700
    51  S          0.71572100       0.96957600       0.92374300
    52  S          0.03427900       0.78042400       0.92374300
    53  S          0.71572100       0.28042400       0.32625700
    54  S          0.03427900       0.46957600       0.32625700
    55  S          0.71572100       0.46957600       0.42374300
    56  S          0.03427900       0.28042400       0.42374300
    57  S          0.21572100       0.78042400       0.32625700
    58  S          0.53427900       0.96957600       0.32625700
    59  S          0.21572100       0.96957600       0.42374300
    60  S          0.53427900       0.78042400       0.42374300
    61  S          0.21572100       0.28042400       0.82625700
    62  S          0.53427900       0.46957600       0.82625700
    63  S          0.21572100       0.46957600       0.92374300
    64  S          0.53427900       0.28042400       0.92374300
    65  S          0.20732800       0.27007700       0.24594300
    66  S          0.04267200       0.97992300       0.24594300
    67  S          0.20732800       0.97992300       0.00405700
    68  S          0.04267200       0.27007700       0.00405700
    69  S          0.20732800       0.77007700       0.74594300
    70  S          0.04267200       0.47992300       0.74594300
    71  S          0.20732800       0.47992300       0.50405700
    72  S          0.04267200       0.77007700       0.50405700
    73  S          0.70732800       0.27007700       0.74594300
    74  S          0.54267200       0.97992300       0.74594300
    75  S          0.70732800       0.97992300       0.50405700
    76  S          0.54267200       0.27007700       0.50405700
    77  S          0.70732800       0.77007700       0.24594300
    78  S          0.54267200       0.47992300       0.24594300
    79  S          0.70732800       0.47992300       0.00405700
    80  S          0.54267200       0.77007700       0.00405700
    81  S          0.79267200       0.72992300       0.75405700
    82  S          0.95732800       0.02007700       0.75405700
    83  S          0.79267200       0.02007700      -0.00405700
    84  S          0.95732800       0.72992300      -0.00405700
    85  S          0.79267200       0.22992300       0.25405700
    86  S          0.95732800       0.52007700       0.25405700
    87  S          0.79267200       0.52007700       0.49594300
    88  S          0.95732800       0.22992300       0.49594300
    89  S          0.29267200       0.72992300       0.25405700
    90  S          0.45732800       0.02007700       0.25405700
    91  S          0.29267200       0.02007700       0.49594300
    92  S          0.45732800       0.72992300       0.49594300
    93  S          0.29267200       0.22992300       0.75405700
    94  S          0.45732800       0.52007700       0.75405700
    95  S          0.29267200       0.52007700      -0.00405700
    96  S          0.45732800       0.22992300      -0.00405700
    97  S          0.35585900       0.29718700       0.29861300
    98  S          0.89414100       0.95281300       0.29861300
    99  S          0.35585900       0.95281300       0.95138700
   100  S          0.89414100       0.29718700       0.95138700
   101  S          0.35585900       0.79718700       0.79861300
   102  S          0.89414100       0.45281300       0.79861300
   103  S          0.35585900       0.45281300       0.45138700
   104  S          0.89414100       0.79718700       0.45138700
   105  S          0.85585900       0.29718700       0.79861300
   106  S          0.39414100       0.95281300       0.79861300
   107  S          0.85585900       0.95281300       0.45138700
   108  S          0.39414100       0.29718700       0.45138700
   109  S          0.85585900       0.79718700       0.29861300
   110  S          0.39414100       0.45281300       0.29861300
   111  S          0.85585900       0.45281300       0.95138700
   112  S          0.39414100       0.79718700       0.95138700
   113  S          0.64414100       0.70281300       0.70138700
   114  S          0.10585900       0.04718700       0.70138700
   115  S          0.64414100       0.04718700       0.04861300
   116  S          0.10585900       0.70281300       0.04861300
   117  S          0.64414100       0.20281300       0.20138700
   118  S          0.10585900       0.54718700       0.20138700
   119  S          0.64414100       0.54718700       0.54861300
   120  S          0.10585900       0.20281300       0.54861300
   121  S          0.14414100       0.70281300       0.20138700
   122  S          0.60585900       0.04718700       0.20138700
   123  S          0.14414100       0.04718700       0.54861300
   124  S          0.60585900       0.70281300       0.54861300
   125  S          0.14414100       0.20281300       0.70138700
   126  S          0.60585900       0.54718700       0.70138700
   127  S          0.14414100       0.54718700       0.04861300
   128  S          0.60585900       0.20281300       0.04861300
