data_FURHUV14
_symmetry_space_group_name_H-M    'P1'
_symmetry_Int_Tables_number       1
loop_
_symmetry_equiv_pos_site_id
_symmetry_equiv_pos_as_xyz
1 x,y,z
_cell_length_a                   10.33108
_cell_length_b                   12.67861
_cell_length_c                   24.351919
_cell_angle_alpha                90.0
_cell_angle_beta                 90.0
_cell_angle_gamma                90.0
loop_
_atom_site_label
_atom_site_type_symbol
_atom_site_fract_x
_atom_site_fract_y
_atom_site_fract_z
     1  S          0.71511400       0.65906400       0.37978200
     2  S          0.53488600       0.59093600       0.37978200
     3  S          0.71511400       0.59093600       0.87021800
     4  S          0.53488600       0.65906400       0.87021800
     5  S          0.71511400       0.15906400       0.87978200
     6  S          0.53488600       0.09093600       0.87978200
     7  S          0.71511400       0.09093600       0.37021800
     8  S          0.53488600       0.15906400       0.37021800
     9  S          0.21511400       0.65906400       0.87978200
    10  S          0.03488600       0.59093600       0.87978200
    11  S          0.21511400       0.59093600       0.37021800
    12  S          0.03488600       0.65906400       0.37021800
    13  S          0.21511400       0.15906400       0.37978200
    14  S          0.03488600       0.09093600       0.37978200
    15  S          0.21511400       0.09093600       0.87021800
    16  S          0.03488600       0.15906400       0.87021800
    17  S          0.28488600       0.34093600       0.62021800
    18  S          0.46511400       0.40906400       0.62021800
    19  S          0.28488600       0.40906400       0.12978200
    20  S          0.46511400       0.34093600       0.12978200
    21  S          0.28488600       0.84093600       0.12021800
    22  S          0.46511400       0.90906400       0.12021800
    23  S          0.28488600       0.90906400       0.62978200
    24  S          0.46511400       0.84093600       0.62978200
    25  S          0.78488600       0.34093600       0.12021800
    26  S          0.96511400       0.40906400       0.12021800
    27  S          0.78488600       0.40906400       0.62978200
    28  S          0.96511400       0.34093600       0.62978200
    29  S          0.78488600       0.84093600       0.62021800
    30  S          0.96511400       0.90906400       0.62021800
    31  S          0.78488600       0.90906400       0.12978200
    32  S          0.96511400       0.84093600       0.12978200
    33  S          0.71561400       0.78341300       0.32582200
    34  S          0.53438600       0.46658700       0.32582200
    35  S          0.71561400       0.46658700       0.92417800
    36  S          0.53438600       0.78341300       0.92417800
    37  S          0.71561400       0.28341300       0.82582200
    38  S          0.53438600       0.96658700       0.82582200
    39  S          0.71561400       0.96658700       0.42417800
    40  S          0.53438600       0.28341300       0.42417800
    41  S          0.21561400       0.78341300       0.82582200
    42  S          0.03438600       0.46658700       0.82582200
    43  S          0.21561400       0.46658700       0.42417800
    44  S          0.03438600       0.78341300       0.42417800
    45  S          0.21561400       0.28341300       0.32582200
    46  S          0.03438600       0.96658700       0.32582200
    47  S          0.21561400       0.96658700       0.92417800
    48  S          0.03438600       0.28341300       0.92417800
    49  S          0.28438600       0.21658700       0.67417800
    50  S          0.46561400       0.53341300       0.67417800
    51  S          0.28438600       0.53341300       0.07582200
    52  S          0.46561400       0.21658700       0.07582200
    53  S          0.28438600       0.71658700       0.17417800
    54  S          0.46561400       0.03341300       0.17417800
    55  S          0.28438600       0.03341300       0.57582200
    56  S          0.46561400       0.71658700       0.57582200
    57  S          0.78438600       0.21658700       0.17417800
    58  S          0.96561400       0.53341300       0.17417800
    59  S          0.78438600       0.53341300       0.57582200
    60  S          0.96561400       0.21658700       0.57582200
    61  S          0.78438600       0.71658700       0.67417800
    62  S          0.96561400       0.03341300       0.67417800
    63  S          0.78438600       0.03341300       0.07582200
    64  S          0.96561400       0.71658700       0.07582200
    65  S          0.79468400       0.73199400       0.25327200
    66  S          0.45531600       0.51800600       0.25327200
    67  S          0.79468400       0.51800600      -0.00327200
    68  S          0.45531600       0.73199400      -0.00327200
    69  S          0.79468400       0.23199400       0.75327200
    70  S          0.45531600       0.01800600       0.75327200
    71  S          0.79468400       0.01800600       0.49672800
    72  S          0.45531600       0.23199400       0.49672800
    73  S          0.29468400       0.73199400       0.75327200
    74  S          0.95531600       0.51800600       0.75327200
    75  S          0.29468400       0.51800600       0.49672800
    76  S          0.95531600       0.73199400       0.49672800
    77  S          0.29468400       0.23199400       0.25327200
    78  S          0.95531600       0.01800600       0.25327200
    79  S          0.29468400       0.01800600      -0.00327200
    80  S          0.95531600       0.23199400      -0.00327200
    81  S          0.20531600       0.26800600       0.74672800
    82  S          0.54468400       0.48199400       0.74672800
    83  S          0.20531600       0.48199400       0.00327200
    84  S          0.54468400       0.26800600       0.00327200
    85  S          0.20531600       0.76800600       0.24672800
    86  S          0.54468400       0.98199400       0.24672800
    87  S          0.20531600       0.98199400       0.50327200
    88  S          0.54468400       0.76800600       0.50327200
    89  S          0.70531600       0.26800600       0.24672800
    90  S          0.04468400       0.48199400       0.24672800
    91  S          0.70531600       0.48199400       0.50327200
    92  S          0.04468400       0.26800600       0.50327200
    93  S          0.70531600       0.76800600       0.74672800
    94  S          0.04468400       0.98199400       0.74672800
    95  S          0.70531600       0.98199400       0.00327200
    96  S          0.04468400       0.76800600       0.00327200
    97  S          0.64412400       0.70427400       0.20007200
    98  S          0.60587600       0.54572600       0.20007200
    99  S          0.64412400       0.54572600       0.04992800
   100  S          0.60587600       0.70427400       0.04992800
   101  S          0.64412400       0.20427400       0.70007200
   102  S          0.60587600       0.04572600       0.70007200
   103  S          0.64412400       0.04572600       0.54992800
   104  S          0.60587600       0.20427400       0.54992800
   105  S          0.14412400       0.70427400       0.70007200
   106  S          0.10587600       0.54572600       0.70007200
   107  S          0.14412400       0.54572600       0.54992800
   108  S          0.10587600       0.70427400       0.54992800
   109  S          0.14412400       0.20427400       0.20007200
   110  S          0.10587600       0.04572600       0.20007200
   111  S          0.14412400       0.04572600       0.04992800
   112  S          0.10587600       0.20427400       0.04992800
   113  S          0.35587600       0.29572600       0.79992800
   114  S          0.39412400       0.45427400       0.79992800
   115  S          0.35587600       0.45427400       0.95007200
   116  S          0.39412400       0.29572600       0.95007200
   117  S          0.35587600       0.79572600       0.29992800
   118  S          0.39412400       0.95427400       0.29992800
   119  S          0.35587600       0.95427400       0.45007200
   120  S          0.39412400       0.79572600       0.45007200
   121  S          0.85587600       0.29572600       0.29992800
   122  S          0.89412400       0.45427400       0.29992800
   123  S          0.85587600       0.45427400       0.45007200
   124  S          0.89412400       0.29572600       0.45007200
   125  S          0.85587600       0.79572600       0.79992800
   126  S          0.89412400       0.95427400       0.79992800
   127  S          0.85587600       0.95427400       0.95007200
   128  S          0.89412400       0.79572600       0.95007200
