data_FURHUV01
_symmetry_space_group_name_H-M    'P1'
_symmetry_Int_Tables_number       1
loop_
_symmetry_equiv_pos_site_id
_symmetry_equiv_pos_as_xyz
1 x,y,z
_cell_length_a                   8.4553
_cell_length_b                   13.0522
_cell_length_c                   9.2673
_cell_angle_alpha                90.0
_cell_angle_beta                 124.893
_cell_angle_gamma                90.0
loop_
_atom_site_label
_atom_site_type_symbol
_atom_site_fract_x
_atom_site_fract_y
_atom_site_fract_z
     1  S          0.64852000       0.34571000       0.32472000
     2  S          0.35148000       0.34571000       0.17528000
     3  S          0.35148000       0.65429000       0.67528000
     4  S          0.64852000       0.65429000       0.82472000
     5  S          0.81101000       0.57921000       0.47081000
     6  S          0.18899000       0.57921000       0.02919000
     7  S          0.18899000       0.42079000       0.52919000
     8  S          0.81101000       0.42079000       0.97081000
     9  S          0.74462000       0.44301000       0.53191000
    10  S          0.25538000       0.44301000       0.96809000
    11  S          0.25538000       0.55699000       0.46809000
    12  S          0.74462000       0.55699000       0.03191000
    13  S          0.58362000       0.67681000       0.38401000
    14  S          0.41638000       0.67681000       0.11599000
    15  S          0.41638000       0.32319000       0.61599000
    16  S          0.58362000       0.32319000       0.88401000
    17  S          0.07992000       0.79791000       0.19932000
    18  S          0.92008000       0.79791000       0.30068000
    19  S          0.92008000       0.20209000       0.80068000
    20  S          0.07992000       0.20209000       0.69932000
    21  S          0.24272000       0.03101000       0.22012000
    22  S          0.75728000       0.03101000       0.27988000
    23  S          0.75728000       0.96899000       0.77988000
    24  S          0.24272000       0.96899000       0.72012000
    25  S          0.30742000       0.89381000       0.35012000
    26  S          0.69258000       0.89381000       0.14988000
    27  S          0.69258000       0.10619000       0.64988000
    28  S          0.30742000       0.10619000       0.85012000
    29  S          0.14832000       0.12711000       0.32942000
    30  S          0.85168000       0.12711000       0.17058000
    31  S          0.85168000       0.87289000       0.67058000
    32  S          0.14832000       0.87289000       0.82942000
