data_FURHUV15
_symmetry_space_group_name_H-M    'P1'
_symmetry_Int_Tables_number       1
loop_
_symmetry_equiv_pos_site_id
_symmetry_equiv_pos_as_xyz
1 x,y,z
_cell_length_a                   10.475314
_cell_length_b                   12.873718
_cell_length_c                   24.5103
_cell_angle_alpha                90.0
_cell_angle_beta                 90.0
_cell_angle_gamma                90.0
loop_
_atom_site_label
_atom_site_type_symbol
_atom_site_fract_x
_atom_site_fract_y
_atom_site_fract_z
     1  S          0.46407300       0.40769300       0.62055200
     2  S          0.28592700       0.34230700       0.62055200
     3  S          0.28592700       0.40769300       0.12944800
     4  S          0.46407300       0.34230700       0.12944800
     5  S          0.46407300       0.90769300       0.12055200
     6  S          0.28592700       0.84230700       0.12055200
     7  S          0.28592700       0.90769300       0.62944800
     8  S          0.46407300       0.84230700       0.62944800
     9  S          0.96407300       0.40769300       0.12055200
    10  S          0.78592700       0.34230700       0.12055200
    11  S          0.78592700       0.40769300       0.62944800
    12  S          0.96407300       0.34230700       0.62944800
    13  S          0.96407300       0.90769300       0.62055200
    14  S          0.78592700       0.84230700       0.62055200
    15  S          0.78592700       0.90769300       0.12944800
    16  S          0.96407300       0.84230700       0.12944800
    17  S          0.53592700       0.59230700       0.37944800
    18  S          0.71407300       0.65769300       0.37944800
    19  S          0.71407300       0.59230700       0.87055200
    20  S          0.53592700       0.65769300       0.87055200
    21  S          0.53592700       0.09230700       0.87944800
    22  S          0.71407300       0.15769300       0.87944800
    23  S          0.71407300       0.09230700       0.37055200
    24  S          0.53592700       0.15769300       0.37055200
    25  S          0.03592700       0.59230700       0.87944800
    26  S          0.21407300       0.65769300       0.87944800
    27  S          0.21407300       0.59230700       0.37055200
    28  S          0.03592700       0.65769300       0.37055200
    29  S          0.03592700       0.09230700       0.37944800
    30  S          0.21407300       0.15769300       0.37944800
    31  S          0.21407300       0.09230700       0.87055200
    32  S          0.03592700       0.15769300       0.87055200
    33  S          0.39415300       0.45278200       0.79857200
    34  S          0.35584700       0.29721800       0.79857200
    35  S          0.35584700       0.45278200       0.95142800
    36  S          0.39415300       0.29721800       0.95142800
    37  S          0.39415300       0.95278200       0.29857200
    38  S          0.35584700       0.79721800       0.29857200
    39  S          0.35584700       0.95278200       0.45142800
    40  S          0.39415300       0.79721800       0.45142800
    41  S          0.89415300       0.45278200       0.29857200
    42  S          0.85584700       0.29721800       0.29857200
    43  S          0.85584700       0.45278200       0.45142800
    44  S          0.89415300       0.29721800       0.45142800
    45  S          0.89415300       0.95278200       0.79857200
    46  S          0.85584700       0.79721800       0.79857200
    47  S          0.85584700       0.95278200       0.95142800
    48  S          0.89415300       0.79721800       0.95142800
    49  S          0.60584700       0.54721800       0.20142800
    50  S          0.64415300       0.70278200       0.20142800
    51  S          0.64415300       0.54721800       0.04857200
    52  S          0.60584700       0.70278200       0.04857200
    53  S          0.60584700       0.04721800       0.70142800
    54  S          0.64415300       0.20278200       0.70142800
    55  S          0.64415300       0.04721800       0.54857200
    56  S          0.60584700       0.20278200       0.54857200
    57  S          0.10584700       0.54721800       0.70142800
    58  S          0.14415300       0.70278200       0.70142800
    59  S          0.14415300       0.54721800       0.54857200
    60  S          0.10584700       0.70278200       0.54857200
    61  S          0.10584700       0.04721800       0.20142800
    62  S          0.14415300       0.20278200       0.20142800
    63  S          0.14415300       0.04721800       0.04857200
    64  S          0.10584700       0.20278200       0.04857200
    65  S          0.54278300       0.47983200       0.74594200
    66  S          0.20721700       0.27016800       0.74594200
    67  S          0.20721700       0.47983200       0.00405800
    68  S          0.54278300       0.27016800       0.00405800
    69  S          0.54278300       0.97983200       0.24594200
    70  S          0.20721700       0.77016800       0.24594200
    71  S          0.20721700       0.97983200       0.50405800
    72  S          0.54278300       0.77016800       0.50405800
    73  S          0.04278300       0.47983200       0.24594200
    74  S          0.70721700       0.27016800       0.24594200
    75  S          0.70721700       0.47983200       0.50405800
    76  S          0.04278300       0.27016800       0.50405800
    77  S          0.04278300       0.97983200       0.74594200
    78  S          0.70721700       0.77016800       0.74594200
    79  S          0.70721700       0.97983200       0.00405800
    80  S          0.04278300       0.77016800       0.00405800
    81  S          0.45721700       0.52016800       0.25405800
    82  S          0.79278300       0.72983200       0.25405800
    83  S          0.79278300       0.52016800      -0.00405800
    84  S          0.45721700       0.72983200      -0.00405800
    85  S          0.45721700       0.02016800       0.75405800
    86  S          0.79278300       0.22983200       0.75405800
    87  S          0.79278300       0.02016800       0.49594200
    88  S          0.45721700       0.22983200       0.49594200
    89  S          0.95721700       0.52016800       0.75405800
    90  S          0.29278300       0.72983200       0.75405800
    91  S          0.29278300       0.52016800       0.49594200
    92  S          0.95721700       0.72983200       0.49594200
    93  S          0.95721700       0.02016800       0.25405800
    94  S          0.29278300       0.22983200       0.25405800
    95  S          0.29278300       0.02016800      -0.00405800
    96  S          0.95721700       0.22983200      -0.00405800
    97  S          0.46588300       0.53033200       0.67380200
    98  S          0.28411700       0.21966800       0.67380200
    99  S          0.28411700       0.53033200       0.07619800
   100  S          0.46588300       0.21966800       0.07619800
   101  S          0.46588300       0.03033200       0.17380200
   102  S          0.28411700       0.71966800       0.17380200
   103  S          0.28411700       0.03033200       0.57619800
   104  S          0.46588300       0.71966800       0.57619800
   105  S          0.96588300       0.53033200       0.17380200
   106  S          0.78411700       0.21966800       0.17380200
   107  S          0.78411700       0.53033200       0.57619800
   108  S          0.96588300       0.21966800       0.57619800
   109  S          0.96588300       0.03033200       0.67380200
   110  S          0.78411700       0.71966800       0.67380200
   111  S          0.78411700       0.03033200       0.07619800
   112  S          0.96588300       0.71966800       0.07619800
   113  S          0.53411700       0.46966800       0.32619800
   114  S          0.71588300       0.78033200       0.32619800
   115  S          0.71588300       0.46966800       0.92380200
   116  S          0.53411700       0.78033200       0.92380200
   117  S          0.53411700       0.96966800       0.82619800
   118  S          0.71588300       0.28033200       0.82619800
   119  S          0.71588300       0.96966800       0.42380200
   120  S          0.53411700       0.28033200       0.42380200
   121  S          0.03411700       0.46966800       0.82619800
   122  S          0.21588300       0.78033200       0.82619800
   123  S          0.21588300       0.46966800       0.42380200
   124  S          0.03411700       0.78033200       0.42380200
   125  S          0.03411700       0.96966800       0.32619800
   126  S          0.21588300       0.28033200       0.32619800
   127  S          0.21588300       0.96966800       0.92380200
   128  S          0.03411700       0.28033200       0.92380200
