data_FURHUV
_symmetry_space_group_name_H-M    'P1'
_symmetry_Int_Tables_number       1
loop_
_symmetry_equiv_pos_site_id
_symmetry_equiv_pos_as_xyz
1 x,y,z
_cell_length_a                   10.46461
_cell_length_b                   12.86601
_cell_length_c                   24.48603
_cell_angle_alpha                90.0
_cell_angle_beta                 90.0
_cell_angle_gamma                90.0
loop_
_atom_site_label
_atom_site_type_symbol
_atom_site_fract_x
_atom_site_fract_y
_atom_site_fract_z
     1  S          0.85584400       0.95266700       0.95145900
     2  S          0.85584400       0.45266700       0.45145900
     3  S          0.35584400       0.95266700       0.45145900
     4  S          0.35584400       0.45266700       0.95145900
     5  S          0.39415600       0.79733300       0.45145900
     6  S          0.39415600       0.29733300       0.95145900
     7  S          0.89415600       0.79733300       0.95145900
     8  S          0.89415600       0.29733300       0.45145900
     9  S          0.85584400       0.79733300       0.79854100
    10  S          0.85584400       0.29733300       0.29854100
    11  S          0.35584400       0.79733300       0.29854100
    12  S          0.35584400       0.29733300       0.79854100
    13  S          0.89415600       0.95266700       0.79854100
    14  S          0.89415600       0.45266700       0.29854100
    15  S          0.39415600       0.95266700       0.29854100
    16  S          0.39415600       0.45266700       0.79854100
    17  S          0.14415600       0.04733300       0.04854100
    18  S          0.14415600       0.54733300       0.54854100
    19  S          0.64415600       0.04733300       0.54854100
    20  S          0.64415600       0.54733300       0.04854100
    21  S          0.60584400       0.20266700       0.54854100
    22  S          0.60584400       0.70266700       0.04854100
    23  S          0.10584400       0.20266700       0.04854100
    24  S          0.10584400       0.70266700       0.54854100
    25  S          0.14415600       0.20266700       0.20145900
    26  S          0.14415600       0.70266700       0.70145900
    27  S          0.64415600       0.20266700       0.70145900
    28  S          0.64415600       0.70266700       0.20145900
    29  S          0.10584400       0.04733300       0.20145900
    30  S          0.10584400       0.54733300       0.70145900
    31  S          0.60584400       0.04733300       0.70145900
    32  S          0.60584400       0.54733300       0.20145900
    33  S          0.70733400       0.97976700       0.00409200
    34  S          0.70733400       0.47976700       0.50409200
    35  S          0.20733400       0.97976700       0.50409200
    36  S          0.20733400       0.47976700       0.00409200
    37  S          0.54266600       0.77023300       0.50409200
    38  S          0.54266600       0.27023300       0.00409200
    39  S          0.04266600       0.77023300       0.00409200
    40  S          0.04266600       0.27023300       0.50409200
    41  S          0.70733400       0.77023300       0.74590800
    42  S          0.70733400       0.27023300       0.24590800
    43  S          0.20733400       0.77023300       0.24590800
    44  S          0.20733400       0.27023300       0.74590800
    45  S          0.04266600       0.97976700       0.74590800
    46  S          0.04266600       0.47976700       0.24590800
    47  S          0.54266600       0.97976700       0.24590800
    48  S          0.54266600       0.47976700       0.74590800
    49  S          0.29266600       0.02023300      -0.00409200
    50  S          0.29266600       0.52023300       0.49590800
    51  S          0.79266600       0.02023300       0.49590800
    52  S          0.79266600       0.52023300      -0.00409200
    53  S          0.45733400       0.22976700       0.49590800
    54  S          0.45733400       0.72976700      -0.00409200
    55  S          0.95733400       0.22976700      -0.00409200
    56  S          0.95733400       0.72976700       0.49590800
    57  S          0.29266600       0.22976700       0.25409200
    58  S          0.29266600       0.72976700       0.75409200
    59  S          0.79266600       0.22976700       0.75409200
    60  S          0.79266600       0.72976700       0.25409200
    61  S          0.95733400       0.02023300       0.25409200
    62  S          0.95733400       0.52023300       0.75409200
    63  S          0.45733400       0.02023300       0.75409200
    64  S          0.45733400       0.52023300       0.25409200
    65  S          0.78415400       0.03022300       0.07623200
    66  S          0.78415400       0.53022300       0.57623200
    67  S          0.28415400       0.03022300       0.57623200
    68  S          0.28415400       0.53022300       0.07623200
    69  S          0.46584600       0.71977700       0.57623200
    70  S          0.46584600       0.21977700       0.07623200
    71  S          0.96584600       0.71977700       0.07623200
    72  S          0.96584600       0.21977700       0.57623200
    73  S          0.78415400       0.71977700       0.67376800
    74  S          0.78415400       0.21977700       0.17376800
    75  S          0.28415400       0.71977700       0.17376800
    76  S          0.28415400       0.21977700       0.67376800
    77  S          0.96584600       0.03022300       0.67376800
    78  S          0.96584600       0.53022300       0.17376800
    79  S          0.46584600       0.03022300       0.17376800
    80  S          0.46584600       0.53022300       0.67376800
    81  S          0.21584600       0.96977700       0.92376800
    82  S          0.21584600       0.46977700       0.42376800
    83  S          0.71584600       0.96977700       0.42376800
    84  S          0.71584600       0.46977700       0.92376800
    85  S          0.53415400       0.28022300       0.42376800
    86  S          0.53415400       0.78022300       0.92376800
    87  S          0.03415400       0.28022300       0.92376800
    88  S          0.03415400       0.78022300       0.42376800
    89  S          0.21584600       0.28022300       0.32623200
    90  S          0.21584600       0.78022300       0.82623200
    91  S          0.71584600       0.28022300       0.82623200
    92  S          0.71584600       0.78022300       0.32623200
    93  S          0.03415400       0.96977700       0.32623200
    94  S          0.03415400       0.46977700       0.82623200
    95  S          0.53415400       0.96977700       0.82623200
    96  S          0.53415400       0.46977700       0.32623200
    97  S          0.78596300       0.90767700       0.12947200
    98  S          0.78596300       0.40767700       0.62947200
    99  S          0.28596300       0.90767700       0.62947200
   100  S          0.28596300       0.40767700       0.12947200
   101  S          0.46403700       0.84232300       0.62947200
   102  S          0.46403700       0.34232300       0.12947200
   103  S          0.96403700       0.84232300       0.12947200
   104  S          0.96403700       0.34232300       0.62947200
   105  S          0.78596300       0.84232300       0.62052800
   106  S          0.78596300       0.34232300       0.12052800
   107  S          0.28596300       0.84232300       0.12052800
   108  S          0.28596300       0.34232300       0.62052800
   109  S          0.96403700       0.90767700       0.62052800
   110  S          0.96403700       0.40767700       0.12052800
   111  S          0.46403700       0.90767700       0.12052800
   112  S          0.46403700       0.40767700       0.62052800
   113  S          0.21403700       0.09232300       0.87052800
   114  S          0.21403700       0.59232300       0.37052800
   115  S          0.71403700       0.09232300       0.37052800
   116  S          0.71403700       0.59232300       0.87052800
   117  S          0.53596300       0.15767700       0.37052800
   118  S          0.53596300       0.65767700       0.87052800
   119  S          0.03596300       0.15767700       0.87052800
   120  S          0.03596300       0.65767700       0.37052800
   121  S          0.21403700       0.15767700       0.37947200
   122  S          0.21403700       0.65767700       0.87947200
   123  S          0.71403700       0.15767700       0.87947200
   124  S          0.71403700       0.65767700       0.37947200
   125  S          0.03596300       0.09232300       0.37947200
   126  S          0.03596300       0.59232300       0.87947200
   127  S          0.53596300       0.09232300       0.87947200
   128  S          0.53596300       0.59232300       0.37947200
