data_FURSEM16
_symmetry_space_group_name_H-M    'P1'
_symmetry_Int_Tables_number       1
loop_
_symmetry_equiv_pos_site_id
_symmetry_equiv_pos_as_xyz
1 x,y,z
_cell_length_a                   4.87647
_cell_length_b                   10.499914
_cell_length_c                   13.640718
_cell_angle_alpha                78.0652
_cell_angle_beta                 86.7212
_cell_angle_gamma                82.5892
loop_
_atom_site_label
_atom_site_type_symbol
_atom_site_fract_x
_atom_site_fract_y
_atom_site_fract_z
     1  S          0.38833160       0.02029800       0.34439600
     2  S          0.61166840       0.97970200       0.65560400
     3  Cl         0.73587160       0.21730800       0.17700600
     4  Cl         0.26412840       0.78269200       0.82299400
     5  O          0.69685000       0.34242000       0.48836180
     6  O          0.30315000       0.65758000       0.51163820
     7  O          0.74196000       0.55202000       0.42095170
     8  O          0.25804000       0.44798000       0.57904830
     9  O          0.24694000       0.97228000       0.43689170
    10  O          0.75306000       0.02772000       0.56310830
    11  O          0.30404000       0.98838000       0.25454170
    12  O          0.69596000       0.01162000       0.74545830
    13  O          0.00555000       0.63552000       0.07576180
    14  O         -0.00555000       0.36448000       0.92423820
    15  C          0.13247000       0.24893000       0.38392000
    16  C          0.86753000       0.75107000       0.61608000
    17  H          0.03570000       0.19300000       0.43400000
    18  H          0.96430000       0.80700000       0.56600000
    19  C          0.05776000       0.38313000       0.37012000
    20  C          0.94224000       0.61687000       0.62988000
    21  N          0.15486000       0.60003000       0.28642000
    22  N          0.84514000       0.39997000       0.71358000
    23  C          0.34106000       0.19283000       0.32812000
    24  C          0.65894000       0.80717000       0.67188000
    25  N          0.70816000       0.96357000       0.35863000
    26  N          0.29184000       0.03643000       0.64137000
    27  C          0.82243000       0.43413000       0.42832000
    28  C          0.17757000       0.56587000       0.57168000
    29  C          0.41707000       0.41063000       0.23922000
    30  C          0.58293000       0.58937000       0.76078000
    31  H          0.51750000       0.46460000       0.18910000
    32  H          0.48250000       0.53540000       0.81090000
    33  C          0.20686000       0.46953000       0.29732000
    34  C          0.79314000       0.53047000       0.70268000
    35  C          0.47766000       0.27743000       0.25382000
    36  C          0.52234000       0.72257000       0.74618000
    37  C          0.91473000       0.84794000       0.07953000
    38  C          0.08527000       0.15206000       0.92047000
    39  H          0.91610000       0.93060000       0.09740000
    40  H          0.08390000       0.06940000       0.90260000
    41  C          0.06347000       0.73473000       0.12053000
    42  C          0.93653000       0.26527000       0.87947000
    43  C          0.25857000       0.69683000       0.20423000
    44  C          0.74143000       0.30317000       0.79577000
    45  H          0.43970000       0.66000000       0.17910000
    46  H          0.56030000       0.34000000       0.82090000
    47  H          0.28680000       0.77580000       0.22960000
    48  H          0.71320000       0.22420000       0.77040000
    49  C          0.81352000       0.69264000       0.00473000
    50  C          0.18648000       0.30736000      -0.00473000
    51  H          0.73420000       0.64730000       0.96210000
    52  H          0.26580000       0.35270000       0.03790000
    53  C          0.75432000       0.82014000       0.00403000
    54  C          0.24568000       0.17986000      -0.00403000
    55  H          0.62960000       0.88090000       0.96130000
    56  H          0.37040000       0.11910000       0.03870000
    57  H          0.76070000       0.97370000       0.41830000
    58  H          0.23930000       0.02630000       0.58170000
    59  H          0.02890000       0.62540000       0.31730000
    60  H          0.97110000       0.37460000       0.68270000
    61  H          0.80880000       0.97760000       0.30530000
    62  H          0.19120000       0.02240000       0.69470000
    63  H          0.56110000       0.38240000       0.52430000
    64  H          0.43890000       0.61760000       0.47570000
