data_FURSEM01
_symmetry_space_group_name_H-M    'P1'
_symmetry_Int_Tables_number       1
loop_
_symmetry_equiv_pos_site_id
_symmetry_equiv_pos_as_xyz
1 x,y,z
_cell_length_a                   10.46712
_cell_length_b                   15.80115
_cell_length_c                   9.5841
_cell_angle_alpha                71.87
_cell_angle_beta                 115.04
_cell_angle_gamma                108.48
loop_
_atom_site_label
_atom_site_type_symbol
_atom_site_fract_x
_atom_site_fract_y
_atom_site_fract_z
     1  Cl         0.90290000       0.30470000       0.69910000
     2  Cl         0.09710000       0.69530000       0.30090000
     3  S          0.07420000       0.15370000       0.97220000
     4  S          0.92580000       0.84630000       0.02780000
     5  N          0.18850000       0.09010000       0.07170000
     6  N          0.81150000       0.90990000       0.92830000
     7  N          0.03180000       0.22530000       0.30920000
     8  N          0.96820000       0.77470000       0.69080000
     9  O          0.19950000       0.00650000       0.65630000
    10  O          0.80050000      -0.00650000       0.34370000
    11  O          0.17360000       0.08700000       0.41410000
    12  O          0.82640000       0.91300000       0.58590000
    13  O          0.93880000       0.10140000      -0.01010000
    14  O          0.06120000       0.89860000       0.01010000
    15  O          0.13350000       0.23860000       0.02040000
    16  O          0.86650000       0.76140000       0.97960000
    17  O          0.13350000       0.42830000       0.32190000
    18  O          0.86650000       0.57170000       0.67810000
    19  C          0.09540000       0.13290000       0.57350000
    20  C          0.90460000       0.86710000       0.42650000
    21  C          0.03370000       0.20570000       0.45680000
    22  C          0.96630000       0.79430000       0.54320000
    23  C          0.97330000       0.25610000       0.50360000
    24  C          0.02670000       0.74390000       0.49640000
    25  C         -0.01790000       0.23950000       0.65630000
    26  C          0.01790000       0.76050000       0.34370000
    27  C          0.05120000       0.17180000       0.77300000
    28  C          0.94880000       0.82820000       0.22700000
    29  C          0.10270000       0.11910000       0.72700000
    30  C          0.89730000       0.88090000       0.27300000
    31  C          0.15890000       0.07380000       0.54240000
    32  C          0.84110000       0.92620000       0.45760000
    33  C         -0.01980000       0.30330000       0.18700000
    34  C          0.01980000       0.69670000       0.81300000
    35  C          0.09020000       0.39010000       0.19460000
    36  C          0.90980000       0.60990000       0.80540000
    37  C          0.15510000       0.44450000       0.09470000
    38  C          0.84490000       0.55550000       0.90530000
    39  C          0.24240000       0.52260000       0.16040000
    40  C          0.75760000       0.47740000       0.83960000
    41  C          0.22710000       0.50900000       0.29740000
    42  C          0.77290000       0.49100000       0.70260000
    43  H          0.25800000       0.96400000       0.64400000
    44  H          0.74200000       0.03600000       0.35600000
    45  H          0.07000000       0.18000000       0.27600000
    46  H          0.93000000       0.82000000       0.72400000
    47  H          0.91900000       0.30900000       0.41500000
    48  H          0.08100000       0.69100000       0.58500000
    49  H          0.25300000       0.07900000       0.01700000
    50  H          0.74700000       0.92100000       0.98300000
    51  H          0.20200000       0.05800000       0.19300000
    52  H          0.79800000       0.94200000       0.80700000
    53  H          0.15200000       0.06400000       0.81600000
    54  H          0.84800000       0.93600000       0.18400000
    55  H          0.88900000       0.31300000       0.20200000
    56  H          0.11100000       0.68700000       0.79800000
    57  H          0.94600000       0.28800000       0.07200000
    58  H          0.05400000       0.71200000       0.92800000
    59  H          0.14300000       0.43100000       0.98300000
    60  H          0.85700000       0.56900000       0.01700000
    61  H          0.31000000       0.58200000       0.10600000
    62  H          0.69000000       0.41800000       0.89400000
    63  H          0.28200000       0.55700000       0.37900000
    64  H          0.71800000       0.44300000       0.62100000
    65  Cl         0.59980000       0.68340000       0.33530000
    66  Cl         0.40020000       0.31660000       0.66470000
    67  S          0.43630000       0.83980000       0.06320000
    68  S          0.56370000       0.16020000       0.93680000
    69  N          0.32430000       0.90460000       0.96740000
    70  N          0.67570000       0.09540000       0.03260000
    71  N          0.47880000       0.76410000       0.72910000
    72  N          0.52120000       0.23590000       0.27090000
    73  O          0.30120000       0.97970000       0.37900000
    74  O          0.69880000       0.02030000       0.62100000
    75  O          0.34150000       0.90490000       0.62670000
    76  O          0.65850000       0.09510000       0.37330000
    77  O          0.57050000       0.89140000       0.04280000
    78  O          0.42950000       0.10860000       0.95720000
    79  O          0.37370000       0.75450000       0.01510000
    80  O          0.62630000       0.24550000      -0.01510000
    81  O          0.25600000       0.59900000       0.75160000
    82  O          0.74400000       0.40100000       0.24840000
    83  C          0.41520000       0.85750000       0.46440000
    84  C          0.58480000       0.14250000       0.53560000
    85  C          0.47450000       0.78420000       0.57880000
    86  C          0.52550000       0.21580000       0.42120000
    87  C          0.53110000       0.73270000       0.53130000
    88  C          0.46890000       0.26730000       0.46870000
    89  C          0.52390000       0.75000000       0.37930000
    90  C          0.47610000       0.25000000       0.62070000
    91  C          0.45970000       0.82000000       0.26420000
    92  C          0.54030000       0.18000000       0.73580000
    93  C          0.40950000       0.87280000       0.31090000
    94  C          0.59050000       0.12720000       0.68910000
    95  C          0.34960000       0.91600000       0.49580000
    96  C          0.65040000       0.08400000       0.50420000
    97  C          0.50800000       0.67770000       0.83850000
    98  C          0.49200000       0.32230000       0.16150000
    99  C          0.39570000       0.59650000       0.78510000
   100  C          0.60430000       0.40350000       0.21490000
   101  C          0.39800000       0.51890000       0.76400000
   102  C          0.60200000       0.48110000       0.23600000
   103  C          0.25150000       0.46850000       0.71150000
   104  C          0.74850000       0.53150000       0.28850000
   105  C          0.17310000       0.51860000       0.70780000
   106  C          0.82690000       0.48140000       0.29220000
   107  H          0.25300000       0.02100000       0.40900000
   108  H          0.74700000       0.97900000       0.59100000
   109  H          0.46000000       0.81400000       0.77100000
   110  H          0.54000000       0.18600000       0.22900000
   111  H          0.58100000       0.67700000       0.61900000
   112  H          0.41900000       0.32300000       0.38100000
   113  H          0.27000000       0.92100000       0.02700000
   114  H          0.73000000       0.07900000       0.97300000
   115  H          0.30300000       0.93300000       0.84300000
   116  H          0.69700000       0.06700000       0.15700000
   117  H          0.36400000       0.93000000       0.22300000
   118  H          0.63600000       0.07000000       0.77700000
   119  H          0.51400000       0.68000000       0.95300000
   120  H          0.48600000       0.32000000       0.04700000
   121  H          0.61200000       0.67000000       0.84800000
   122  H          0.38800000       0.33000000       0.15200000
   123  H          0.49700000       0.49900000       0.78000000
   124  H          0.50300000       0.50100000       0.22000000
   125  H          0.21300000       0.40000000       0.68200000
   126  H          0.78700000       0.60000000       0.31800000
   127  H          0.05300000       0.49900000       0.67500000
   128  H          0.94700000       0.50100000       0.32500000
