data_FURSEM14
_symmetry_space_group_name_H-M    'P1'
_symmetry_Int_Tables_number       1
loop_
_symmetry_equiv_pos_site_id
_symmetry_equiv_pos_as_xyz
1 x,y,z
_cell_length_a                   5.00975
_cell_length_b                   10.108611
_cell_length_c                   26.6203
_cell_angle_alpha                90.0
_cell_angle_beta                 95.3962
_cell_angle_gamma                90.0
loop_
_atom_site_label
_atom_site_type_symbol
_atom_site_fract_x
_atom_site_fract_y
_atom_site_fract_z
     1  Cl         0.65935170       0.72007900       0.19162300
     2  Cl         0.84064830       0.22007900       0.30837700
     3  Cl         0.34064830       0.27992100       0.80837700
     4  Cl         0.15935170       0.77992100       0.69162300
     5  S          0.35490160      -0.00075200       0.21750300
     6  S          0.14509840       0.49924800       0.28249700
     7  S          0.64509840       0.00075200       0.78249700
     8  S          0.85490160       0.50075200       0.71750300
     9  O          0.22775000       0.12522000       0.21038900
    10  O          0.27225000       0.62522000       0.28961100
    11  O          0.77225000       0.87478000       0.78961100
    12  O          0.72775000       0.37478000       0.71038900
    13  O          0.74545000       0.89852000       0.00196900
    14  O          0.75455000       0.39852000       0.49803100
    15  O          0.25455000       0.10148000      -0.00196900
    16  O          0.24545000       0.60148000       0.50196900
    17  O          0.65985000       0.03622000       0.06398100
    18  O          0.84015000       0.53622000       0.43601900
    19  O          0.34015000       0.96378000       0.93601900
    20  O          0.15985000       0.46378000       0.56398100
    21  C          0.08906000       0.95633000       0.12531120
    22  C          0.41094000       0.45633000       0.37468880
    23  C          0.91094000       0.04367000       0.87468880
    24  C          0.58906000       0.54367000       0.62531120
    25  H         -0.01420000       0.03060000       0.13360000
    26  H          0.51420000       0.53060000       0.36640000
    27  H          0.01420000       0.96940000       0.86640000
    28  H          0.48580000       0.46940000       0.63360000
    29  N          0.15686000       0.73393000       0.01818110
    30  N          0.34314000       0.23393000       0.48181890
    31  N          0.84314000       0.26607000       0.98181890
    32  N          0.65686000       0.76607000       0.51818110
    33  O          0.63555000      -0.00527000       0.23300900
    34  O          0.86445000       0.49473000       0.26699100
    35  O          0.36445000       0.00527000       0.76699100
    36  O          0.13555000       0.50527000       0.73300900
    37  C          0.38427000       0.73813000       0.10147120
    38  C          0.11573000       0.23813000       0.39852880
    39  C          0.61573000       0.26187000       0.89852880
    40  C          0.88427000       0.76187000       0.60147120
    41  H          0.48400000       0.66180000       0.09390000
    42  H          0.01600000       0.16180000       0.40610000
    43  H          0.51600000       0.33820000       0.90610000
    44  H         -0.01600000       0.83820000       0.59390000
    45  O          0.05245000       0.54833000       0.92750900
    46  O          0.44755000       0.04833000       0.57249100
    47  O          0.94755000       0.45167000       0.07249100
    48  O          0.55245000       0.95167000       0.42750900
    49  N          0.20347000       0.92193000       0.25986110
    50  N          0.29653000       0.42193000       0.24013890
    51  N          0.79653000       0.07807000       0.74013890
    52  N          0.70347000       0.57807000       0.75986110
    53  C          0.80223000       0.94293000       0.04510130
    54  C          0.69777000       0.44293000       0.45489870
    55  C          0.19777000       0.05707000       0.95489870
    56  C          0.30223000       0.55707000       0.54510130
    57  C          0.43317000       0.79743000       0.14803130
    58  C          0.06683000       0.29743000       0.35196870
    59  C          0.56683000       0.20257000       0.85196870
    60  C          0.93317000       0.70257000       0.64803130
    61  C          0.27917000       0.61843000       0.94450870
    62  C          0.22083000       0.11843000       0.55549130
    63  C          0.72083000       0.38157000       0.05549130
    64  C          0.77917000       0.88157000       0.44450870
    65  C          0.19057000       0.78793000       0.06509130
    66  C          0.30943000       0.28793000       0.43490870
    67  C          0.80943000       0.21207000       0.93490870
    68  C          0.69057000       0.71207000       0.56509130
    69  C          0.03107000       0.89533000       0.07899130
    70  C          0.46893000       0.39533000       0.42100870
    71  C          0.96893000       0.10467000       0.92100870
    72  C          0.53107000       0.60467000       0.57899130
    73  C          0.29436000       0.91173000       0.15993120
    74  C          0.20564000       0.41173000       0.34006880
    75  C          0.70564000       0.08827000       0.84006880
    76  C          0.79436000       0.58827000       0.65993120
    77  C          0.32867000       0.63234000       0.00045130
    78  C          0.17133000       0.13234000       0.49954870
    79  C          0.67133000       0.36766000      -0.00045130
    80  C          0.82867000       0.86766000       0.50045130
    81  H          0.29250000       0.54700000       0.01680000
    82  H          0.20750000       0.04700000       0.48320000
    83  H          0.70750000       0.45300000       0.98320000
    84  H          0.79250000       0.95300000       0.51680000
    85  H          0.51870000       0.65580000       0.00970000
    86  H         -0.01870000       0.15580000       0.49030000
    87  H          0.48130000       0.34420000       0.99030000
    88  H          0.01870000       0.84420000       0.50970000
    89  C          0.03389000       0.55384000       0.87552850
    90  C          0.46611000       0.05384000       0.62447150
    91  C          0.96611000       0.44616000       0.12447150
    92  C          0.53389000       0.94616000       0.37552850
    93  H          0.89550000       0.51450000       0.85360000
    94  H          0.60450000       0.01450000       0.64640000
    95  H          0.10450000       0.48550000       0.14640000
    96  H          0.39550000       0.98550000       0.35360000
    97  C          0.23808000       0.62214000       0.86085850
    98  C          0.26192000       0.12214000       0.63914150
    99  C          0.76192000       0.37786000       0.13914150
   100  C          0.73808000       0.87786000       0.36085850
   101  H          0.27260000       0.63900000       0.82700000
   102  H          0.22740000       0.13900000       0.67300000
   103  H          0.72740000       0.36100000       0.17300000
   104  H          0.77260000       0.86100000       0.32700000
   105  C          0.39889000       0.66614000       0.90555840
   106  C          0.10111000       0.16614000       0.59444160
   107  C          0.60111000       0.33386000       0.09444160
   108  C          0.89889000       0.83386000       0.40555840
   109  H          0.55700000       0.71830000       0.90700000
   110  H          0.94300000       0.21830000       0.59300000
   111  H          0.44300000       0.28170000       0.09300000
   112  H          0.05700000       0.78170000       0.40700000
   113  H          0.02890000       0.77040000      -0.00061700
   114  H          0.47110000       0.27040000       0.50061700
   115  H         -0.02890000       0.22960000       0.00061700
   116  H          0.52890000       0.72960000       0.49938300
   117  H          0.54610000       0.05340000       0.04611800
   118  H          0.95390000       0.55340000       0.45388200
   119  H          0.45390000       0.94660000       0.95388200
   120  H          0.04610000       0.44660000       0.54611800
   121  H          0.03480000       0.93040000       0.25511400
   122  H          0.46520000       0.43040000       0.24488600
   123  H          0.96520000       0.06960000       0.74488600
   124  H          0.53480000       0.56960000       0.75511400
   125  H          0.26090000       0.84550000       0.26231700
   126  H          0.23910000       0.34550000       0.23768300
   127  H          0.73910000       0.15450000       0.73768300
   128  H          0.76090000       0.65450000       0.76231700
