data_FUWFAG01
_symmetry_space_group_name_H-M    'P1'
_symmetry_Int_Tables_number       1
loop_
_symmetry_equiv_pos_site_id
_symmetry_equiv_pos_as_xyz
1 x,y,z
_cell_length_a                   9.5131814
_cell_length_b                   8.9797513
_cell_length_c                   20.43593
_cell_angle_alpha                90.0
_cell_angle_beta                 98.594213
_cell_angle_gamma                90.0
loop_
_atom_site_label
_atom_site_type_symbol
_atom_site_fract_x
_atom_site_fract_y
_atom_site_fract_z
     1  O          0.09179900       0.64359100       0.17641400
     2  O          0.90820100       0.14359100       0.32358600
     3  O          0.90820100       0.35640900       0.82358600
     4  O          0.09179900       0.85640900       0.67641400
     5  N          0.54297100       0.84348110       0.42144500
     6  N          0.45702900       0.34348110       0.07855500
     7  N          0.45702900       0.15651890       0.57855500
     8  N          0.54297100       0.65651890       0.92144500
     9  C          0.40586120       0.57617140       0.28934600
    10  C          0.59413880       0.07617140       0.21065400
    11  C          0.59413880       0.42382860       0.71065400
    12  C          0.40586120       0.92382860       0.78934600
    13  H          0.43740000       0.49270000       0.26880000
    14  H          0.56260000      -0.00730000       0.23120000
    15  H          0.56260000       0.50730000       0.73120000
    16  H          0.43740000       0.00730000       0.76880000
    17  C          0.64092130       0.62550140       0.49106600
    18  C          0.35907870       0.12550140       0.00893400
    19  C          0.35907870       0.37449860       0.50893400
    20  C          0.64092130       0.87449860       0.99106600
    21  H          0.57650000       0.55630000       0.47030000
    22  H          0.42350000       0.05630000       0.02970000
    23  H          0.42350000       0.44370000       0.52970000
    24  H          0.57650000       0.94370000       0.97030000
    25  C          0.31000120       0.81994140       0.35354600
    26  C          0.68999880       0.31994140       0.14645400
    27  C          0.68999880       0.18005860       0.64645400
    28  C          0.31000120       0.68005860       0.85354600
    29  H          0.27670000       0.89960000       0.37590000
    30  H          0.72330000       0.39960000       0.12410000
    31  H          0.72330000       0.10040000       0.62410000
    32  H          0.27670000       0.60040000       0.87590000
    33  C          0.49630120       0.64776140       0.33873600
    34  C          0.50369880       0.14776140       0.16126400
    35  C          0.50369880       0.35223860       0.66126400
    36  C          0.49630120       0.85223860       0.83873600
    37  H          0.58920000       0.61430000       0.35020000
    38  H          0.41080000       0.11430000       0.14980000
    39  H          0.41080000       0.38570000       0.64980000
    40  H          0.58920000       0.88570000       0.85020000
    41  C          0.19731120       0.29720150       0.25448600
    42  C          0.80268880       0.79720150       0.24551400
    43  C          0.80268880       0.70279850       0.74551400
    44  C          0.19731120       0.20279850       0.75448600
    45  H          0.23100000       0.33210000       0.29680000
    46  H          0.76900000       0.83210000       0.20320000
    47  H          0.76900000       0.66790000       0.70320000
    48  H          0.23100000       0.16790000       0.79680000
    49  C          0.73143120       0.87998140       0.50327600
    50  C          0.26856880       0.37998140      -0.00327600
    51  C          0.26856880       0.12001860       0.49672400
    52  C          0.73143120       0.62001860       0.00327600
    53  C          0.44892120       0.76961130       0.37133500
    54  C          0.55107880       0.26961130       0.12866500
    55  C          0.55107880       0.23038870       0.62866500
    56  C          0.44892120       0.73038870       0.87133500
    57  C          0.26776120       0.62818130       0.27006600
    58  C          0.73223880       0.12818130       0.22993400
    59  C          0.73223880       0.37181870       0.72993400
    60  C          0.26776120       0.87181870       0.77006600
    61  C          0.63571120       0.77383140       0.47154600
    62  C          0.36428880       0.27383140       0.02845400
    63  C          0.36428880       0.22616860       0.52845400
    64  C          0.63571120       0.72616860       0.97154600
    65  C          0.83639130       0.83533150       0.55442600
    66  C          0.16360870       0.33533150       0.94557400
    67  C          0.16360870       0.16466850       0.44557400
    68  C          0.83639130       0.66466850       0.05442600
    69  H          0.90110000       0.90400000       0.57550000
    70  H          0.09890000       0.40400000       0.92450000
    71  H          0.09890000       0.09600000       0.42450000
    72  H          0.90110000       0.59600000       0.07550000
    73  C          0.22177120       0.75133140       0.30252600
    74  C          0.77822880       0.25133140       0.19747400
    75  C          0.77822880       0.24866860       0.69747400
    76  C          0.22177120       0.74866860       0.80252600
    77  H          0.13030000       0.78790000       0.28970000
    78  H          0.86970000       0.28790000       0.21030000
    79  H          0.86970000       0.21210000       0.71030000
    80  H          0.13030000       0.71210000       0.78970000
    81  C          0.69694120       0.02054140       0.47016600
    82  C          0.30305880       0.52054140       0.02983400
    83  C          0.30305880       0.97945860       0.52983400
    84  C          0.69694120       0.47945860       0.97016600
    85  C          0.74523140       0.58413150       0.54250600
    86  C          0.25476860       0.08413150       0.95749400
    87  C          0.25476860       0.41586850       0.45749400
    88  C          0.74523140       0.91586850       0.04250600
    89  H          0.75030000       0.48560000       0.55670000
    90  H          0.24970000      -0.01440000       0.94330000
    91  H          0.24970000       0.51440000       0.44330000
    92  H          0.75030000       0.01440000       0.05670000
    93  C          0.16670120       0.39727140       0.20228600
    94  C          0.83329880       0.89727140       0.29771400
    95  C          0.83329880       0.60272860       0.79771400
    96  C          0.16670120       0.10272860       0.70228600
    97  C          0.58096120      -0.00563870       0.42018600
    98  C          0.41903880       0.49436130       0.07981400
    99  C          0.41903880       0.00563870       0.57981400
   100  C          0.58096120       0.50563870       0.92018600
   101  C          0.76023140       0.16110140       0.47574600
   102  C          0.23976860       0.66110140       0.02425400
   103  C          0.23976860       0.83889860       0.52425400
   104  C          0.76023140       0.33889860       0.97574600
   105  H          0.83700000       0.18000000       0.50850000
   106  H          0.16300000       0.68000000       0.99150000
   107  H          0.16300000       0.82000000       0.49150000
   108  H          0.83700000       0.32000000       0.00850000
   109  C          0.11931120       0.34190150       0.13881600
   110  C          0.88068880       0.84190150       0.36118400
   111  C          0.88068880       0.65809850       0.86118400
   112  C          0.11931120       0.15809850       0.63881600
   113  H          0.09810000       0.40760000       0.10350000
   114  H          0.90190000       0.90760000       0.39650000
   115  H          0.90190000       0.59240000       0.89650000
   116  H          0.09810000       0.09240000       0.60350000
   117  C          0.17069120       0.56234140       0.21314600
   118  C          0.82930880       0.06234140       0.28685400
   119  C          0.82930880       0.43765860       0.78685400
   120  C          0.17069120       0.93765860       0.71314600
   121  C          0.52646130       0.10588140       0.37652600
   122  C          0.47353870       0.60588140       0.12347400
   123  C          0.47353870       0.89411860       0.62347400
   124  C          0.52646130       0.39411860       0.87652600
   125  H          0.44910000       0.08840000       0.34380000
   126  H          0.55090000       0.58840000       0.15620000
   127  H          0.55090000       0.91160000       0.65620000
   128  H          0.44910000       0.41160000       0.84380000
   129  C          0.70737150       0.27132150       0.43206700
   130  C          0.29262850       0.77132150       0.06793300
   131  C          0.29262850       0.72867850       0.56793300
   132  C          0.70737150       0.22867850       0.93206700
   133  H          0.74950000       0.36500000       0.43500000
   134  H          0.25050000       0.86500000       0.06500000
   135  H          0.25050000       0.63500000       0.56500000
   136  H          0.74950000       0.13500000       0.93500000
   137  C          0.59146150       0.24367150       0.38346700
   138  C          0.40853850       0.74367150       0.11653300
   139  C          0.40853850       0.75632850       0.61653300
   140  C          0.59146150       0.25632850       0.88346700
   141  H          0.55680000       0.32020000       0.35490000
   142  H          0.44320000       0.82020000       0.14510000
   143  H          0.44320000       0.67980000       0.64510000
   144  H          0.55680000       0.17980000       0.85490000
   145  C          0.84296140       0.68726150       0.57347600
   146  C          0.15703860       0.18726150       0.92652400
   147  C          0.15703860       0.31273850       0.42652400
   148  C          0.84296140       0.81273850       0.07347600
   149  H          0.91330000       0.65620000       0.60730000
   150  H          0.08670000       0.15620000       0.89270000
   151  H          0.08670000       0.34380000       0.39270000
   152  H          0.91330000       0.84380000       0.10730000
   153  C          0.17778130       0.14573150       0.24368700
   154  C          0.82221870       0.64573150       0.25631300
   155  C          0.82221870       0.85426850       0.75631300
   156  C          0.17778130       0.35426850       0.74368700
   157  H          0.19560000       0.07980000       0.27910000
   158  H          0.80440000       0.57980000       0.22090000
   159  H          0.80440000       0.92020000       0.72090000
   160  H          0.19560000       0.42020000       0.77910000
   161  C          0.10374130       0.19050160       0.12811600
   162  C          0.89625870       0.69050160       0.37188400
   163  C          0.89625870       0.80949840       0.87188400
   164  C          0.10374130       0.30949840       0.62811600
   165  H          0.07430000       0.15460000       0.08560000
   166  H          0.92570000       0.65460000       0.41440000
   167  H          0.92570000       0.84540000       0.91440000
   168  H          0.07430000       0.34540000       0.58560000
   169  C          0.13195130       0.09177160       0.18072700
   170  C          0.86804870       0.59177160       0.31927300
   171  C          0.86804870       0.90822840       0.81927300
   172  C          0.13195130       0.40822840       0.68072700
   173  H          0.12010000      -0.01010000       0.17370000
   174  H          0.87990000       0.48990000       0.32630000
   175  H          0.87990000       0.01010000       0.82630000
   176  H          0.12010000       0.51010000       0.67370000
