data_FUWFAG06
_symmetry_space_group_name_H-M    'P1'
_symmetry_Int_Tables_number       1
loop_
_symmetry_equiv_pos_site_id
_symmetry_equiv_pos_as_xyz
1 x,y,z
_cell_length_a                   12.77873
_cell_length_b                   10.24212
_cell_length_c                   14.81333
_cell_angle_alpha                90.0
_cell_angle_beta                 113.66001
_cell_angle_gamma                90.0
loop_
_atom_site_label
_atom_site_type_symbol
_atom_site_fract_x
_atom_site_fract_y
_atom_site_fract_z
     1  O          0.01958900       0.34244120       0.52407900
     2  O          0.98041100       0.84244120       0.97592100
     3  O          0.98041100       0.65755880       0.47592100
     4  O          0.01958900       0.15755880       0.02407900
     5  N          0.49399100       0.53769120       0.85246900
     6  N          0.50600900       0.03769120       0.64753100
     7  N          0.50600900       0.46230880       0.14753100
     8  N          0.49399100       0.96230880       0.35246900
     9  C          0.56476130       0.81853150       0.07088120
    10  C          0.43523870       0.31853150       0.42911880
    11  C          0.43523870       0.18146850       0.92911880
    12  C          0.56476130       0.68146850       0.57088120
    13  H          0.58370000       0.87910000       0.12360000
    14  H          0.41630000       0.37910000       0.37640000
    15  H          0.41630000       0.12090000       0.87640000
    16  H          0.58370000       0.62090000       0.62360000
    17  C          0.64436130       0.72739140       0.07119110
    18  C          0.35563870       0.22739140       0.42880890
    19  C          0.35563870       0.27260860       0.92880890
    20  C          0.64436130       0.77260860       0.57119110
    21  H          0.71850000       0.72590000       0.12300000
    22  H          0.28150000       0.22590000       0.37700000
    23  H          0.28150000       0.27410000       0.87700000
    24  H          0.71850000       0.77410000       0.62300000
    25  C          0.61414120       0.63726140      -0.00588890
    26  C          0.38585880       0.13726140       0.50588890
    27  C          0.38585880       0.36273860       0.00588890
    28  C          0.61414120       0.86273860       0.49411110
    29  C          0.67580120       0.53281140       0.97130110
    30  C          0.32419880       0.03281140       0.52869890
    31  C          0.32419880       0.46718860       0.02869890
    32  C          0.67580120       0.96718860       0.47130110
    33  C          0.78732130       0.48563160       0.01877120
    34  C          0.21267870       0.98563160       0.48122880
    35  C          0.21267870       0.51436840       0.98122880
    36  C          0.78732130       0.01436840       0.51877120
    37  H          0.84010000       0.52730000       0.07640000
    38  H          0.15990000       0.02730000       0.42360000
    39  H          0.15990000       0.47270000       0.92360000
    40  H          0.84010000       0.97270000       0.57640000
    41  C          0.81949140       0.37708170       0.98026120
    42  C          0.18050860       0.87708170       0.51973880
    43  C          0.18050860       0.62291830       0.01973880
    44  C          0.81949140       0.12291830       0.48026120
    45  H          0.89540000       0.34480000       0.01090000
    46  H          0.10460000       0.84480000       0.48910000
    47  H          0.10460000       0.65520000       0.98910000
    48  H          0.89540000       0.15520000       0.51090000
    49  C          0.74109140       0.31471160       0.89662120
    50  C          0.25890860       0.81471160       0.60337880
    51  C          0.25890860       0.68528840       0.10337880
    52  C          0.74109140       0.18528840       0.39662120
    53  H          0.76420000       0.23890000       0.87260000
    54  H          0.23580000       0.73890000       0.62740000
    55  H          0.23580000       0.76110000       0.12740000
    56  H          0.76420000       0.26110000       0.37260000
    57  C          0.63051130       0.36044150       0.84779120
    58  C          0.36948870       0.86044150       0.65220880
    59  C          0.36948870       0.63955850       0.15220880
    60  C          0.63051130       0.13955850       0.34779120
    61  H          0.57780000       0.31740000       0.79090000
    62  H          0.42220000       0.81740000       0.70910000
    63  H          0.42220000       0.68260000       0.20910000
    64  H          0.57780000       0.18260000       0.29090000
    65  C          0.59936120       0.47187140       0.88508110
    66  C          0.40063880       0.97187140       0.61491890
    67  C          0.40063880       0.52812860       0.11491890
    68  C          0.59936120       0.02812860       0.38508110
    69  C          0.50348120       0.63867140       0.91894110
    70  C          0.49651880       0.13867140       0.58105890
    71  C          0.49651880       0.36132860       0.08105890
    72  C          0.50348120       0.86132860       0.41894110
    73  C          0.42409130       0.73378150       0.91697120
    74  C          0.57590870       0.23378150       0.58302880
    75  C          0.57590870       0.26621850       0.08302880
    76  C          0.42409130       0.76621850       0.41697120
    77  H          0.35040000       0.73720000       0.86470000
    78  H          0.64960000       0.23720000       0.63530000
    79  H          0.64960000       0.26280000       0.13530000
    80  H          0.35040000       0.76280000       0.36470000
    81  C          0.45643130       0.82263150      -0.00636880
    82  C          0.54356870       0.32263150       0.50636880
    83  C          0.54356870       0.17736850       0.00636880
    84  C          0.45643130       0.67736850       0.49363120
    85  H          0.40380000       0.88800000      -0.00620000
    86  H          0.59620000       0.38800000       0.50620000
    87  H          0.59620000       0.11200000       0.00620000
    88  H          0.40380000       0.61200000       0.49380000
    89  C          0.39592120       0.50594140       0.76695110
    90  C          0.60407880       0.00594140       0.73304890
    91  C          0.60407880       0.49405860       0.23304890
    92  C          0.39592120      -0.00594140       0.26695110
    93  C          0.40738120       0.46898140       0.68123110
    94  C          0.59261880       0.96898140       0.81876890
    95  C          0.59261880       0.53101860       0.31876890
    96  C          0.40738120       0.03101860       0.18123110
    97  H          0.48090000       0.46790000       0.67940000
    98  H          0.51910000       0.96790000       0.82060000
    99  H          0.51910000       0.53210000       0.32060000
   100  H          0.48090000       0.03210000       0.17940000
   101  C          0.31261130       0.43377140       0.59850110
   102  C          0.68738870       0.93377140       0.90149890
   103  C          0.68738870       0.56622860       0.40149890
   104  C          0.31261130       0.06622860       0.09850110
   105  H          0.32170000       0.40830000       0.54040000
   106  H          0.67830000       0.90830000       0.95960000
   107  H          0.67830000       0.59170000       0.45960000
   108  H          0.32170000       0.09170000       0.04040000
   109  C          0.20358120       0.43508140       0.59911110
   110  C          0.79641880       0.93508140       0.90088890
   111  C          0.79641880       0.56491860       0.40088890
   112  C          0.20358120       0.06491860       0.09911110
   113  C          0.19254120       0.47281140       0.68539110
   114  C          0.80745880       0.97281140       0.81460890
   115  C          0.80745880       0.52718860       0.31460890
   116  C          0.19254120       0.02718860       0.18539110
   117  H          0.11910000       0.47380000       0.68720000
   118  H          0.88090000       0.97380000       0.81280000
   119  H          0.88090000       0.52620000       0.31280000
   120  H          0.11910000       0.02620000       0.18720000
   121  C          0.28697120       0.50874150       0.76810110
   122  C          0.71302880       0.00874150       0.73189890
   123  C          0.71302880       0.49125850       0.23189890
   124  C          0.28697120      -0.00874150       0.26810110
   125  H          0.27800000       0.53540000       0.82600000
   126  H          0.72200000       0.03540000       0.67400000
   127  H          0.72200000       0.46460000       0.17400000
   128  H          0.27800000       0.96460000       0.32600000
   129  C          0.10139130       0.38987150       0.51248120
   130  C          0.89860870       0.88987150       0.98751880
   131  C          0.89860870       0.61012850       0.48751880
   132  C          0.10139130       0.11012850       0.01248120
   133  C          0.10030120       0.40007150       0.41150120
   134  C          0.89969880       0.90007150       0.08849880
   135  C          0.89969880       0.59992850       0.58849880
   136  C          0.10030120       0.09992850       0.91150120
   137  C          0.15137130       0.50396160       0.38360120
   138  C          0.84862870       0.00396160       0.11639880
   139  C          0.84862870       0.49603840       0.61639880
   140  C          0.15137130      -0.00396160       0.88360120
   141  H          0.18860000       0.57100000       0.42960000
   142  H          0.81140000       0.07100000       0.07040000
   143  H          0.81140000       0.42900000       0.57040000
   144  H          0.18860000       0.92900000       0.92960000
   145  C          0.14800140       0.50984190       0.28902130
   146  C          0.85199860       0.00984190       0.21097870
   147  C          0.85199860       0.49015810       0.71097870
   148  C          0.14800140      -0.00984190       0.78902130
   149  H          0.18250000       0.58120000       0.27040000
   150  H          0.81750000       0.08120000       0.22960000
   151  H          0.81750000       0.41880000       0.72960000
   152  H          0.18250000       0.91880000       0.77040000
   153  C          0.09441150       0.41212000       0.22133130
   154  C          0.90558850       0.91212000       0.27866870
   155  C          0.90558850       0.58788000       0.77866870
   156  C          0.09441150       0.08788000       0.72133130
   157  H          0.09430000       0.41500000       0.15720000
   158  H          0.90570000       0.91500000       0.34280000
   159  H          0.90570000       0.58500000       0.84280000
   160  H          0.09430000       0.08500000       0.65720000
   161  C          0.04092150       0.30983190       0.24770130
   162  C          0.95907850       0.80983190       0.25229870
   163  C          0.95907850       0.69016810       0.75229870
   164  C          0.04092150       0.19016810       0.74770130
   165  H          0.00280000       0.24370000       0.20110000
   166  H         -0.00280000       0.74370000       0.29890000
   167  H         -0.00280000       0.75630000       0.79890000
   168  H          0.00280000       0.25630000       0.70110000
   169  C          0.04327130       0.30438160       0.34159120
   170  C          0.95672870       0.80438160       0.15840880
   171  C          0.95672870       0.69561840       0.65840880
   172  C          0.04327130       0.19561840       0.84159120
   173  H          0.00570000       0.23490000       0.35900000
   174  H         -0.00570000       0.73490000       0.14100000
   175  H         -0.00570000       0.76510000       0.64100000
   176  H          0.00570000       0.26510000       0.85900000
