data_FUWFAG
_symmetry_space_group_name_H-M    'P1'
_symmetry_Int_Tables_number       1
loop_
_symmetry_equiv_pos_site_id
_symmetry_equiv_pos_as_xyz
1 x,y,z
_cell_length_a                   7.34593
_cell_length_b                   9.27175
_cell_length_c                   13.03307
_cell_angle_alpha                94.4344
_cell_angle_beta                 94.7144
_cell_angle_gamma                100.5354
loop_
_atom_site_label
_atom_site_type_symbol
_atom_site_fract_x
_atom_site_fract_y
_atom_site_fract_z
     1  O          0.24103150       0.56106100       0.94708400
     2  O          0.75896850       0.43893900       0.05291600
     3  N          0.28603130       0.80667900       0.41727700
     4  N          0.71396870       0.19332100       0.58272300
     5  C          0.22665150       0.32532130       0.00541800
     6  C          0.77334850       0.67467870      -0.00541800
     7  C          0.14307160       0.25080140       0.91086100
     8  C          0.85692840       0.74919860       0.08913900
     9  H          0.08910000       0.30290000       0.86020000
    10  H          0.91090000       0.69710000       0.13980000
    11  C          0.13906170       0.10161140       0.89115900
    12  C          0.86093830       0.89838860       0.10884100
    13  H          0.07870000       0.05100000       0.82780000
    14  H          0.92130000       0.94900000       0.17220000
    15  C          0.22240180       0.02529140       0.96309900
    16  C          0.77759820       0.97470860       0.03690100
    17  H          0.22140000       0.92310000       0.94850000
    18  H          0.77860000       0.07690000       0.05150000
    19  C          0.30722180       0.09867140       0.05640100
    20  C          0.69277820       0.90132860       0.94359900
    21  H          0.36580000       0.04690000       0.10550000
    22  H          0.63420000       0.95310000       0.89450000
    23  C          0.30688160       0.24727130       0.07827900
    24  C          0.69311840       0.75272870       0.92172100
    25  H          0.36160000       0.29620000       0.14320000
    26  H          0.63840000       0.70380000       0.85680000
    27  C          0.24103160       0.48803130       0.02134800
    28  C          0.75896840       0.51196870       0.97865200
    29  C          0.25883150       0.56405120       0.12799800
    30  C          0.74116850       0.43594880       0.87200200
    31  C          0.36892150       0.70466120       0.14760800
    32  C          0.63107850       0.29533880       0.85239200
    33  H          0.43560000       0.74720000       0.09440000
    34  H          0.56440000       0.25280000       0.90560000
    35  C          0.38207150       0.78274120       0.24345800
    36  C          0.61792850       0.21725880       0.75654200
    37  H          0.46160000       0.87660000       0.25680000
    38  H          0.53840000       0.12340000       0.74320000
    39  C          0.27871140       0.72390110       0.32076800
    40  C          0.72128860       0.27609890       0.67923200
    41  C          0.16584150       0.58425120       0.30122800
    42  C          0.83415850       0.41574880       0.69877200
    43  H          0.09370000       0.54420000       0.35310000
    44  H          0.90630000       0.45580000       0.64690000
    45  C          0.15894150       0.50410120       0.20637800
    46  C          0.84105850       0.49589880       0.79362200
    47  H          0.08570000       0.40760000       0.19450000
    48  H          0.91430000       0.59240000       0.80550000
    49  C          0.25818140       0.95209110       0.43152800
    50  C          0.74181860       0.04790890       0.56847200
    51  C          0.22968150       0.04976120       0.35811900
    52  C          0.77031850       0.95023880       0.64188100
    53  H          0.23450000       0.02400000       0.28650000
    54  H          0.76550000       0.97600000       0.71350000
    55  C          0.19415160       0.18525130       0.39339100
    56  C          0.80584840       0.81474870       0.60660900
    57  H          0.17510000       0.25400000       0.34510000
    58  H          0.82490000       0.74600000       0.65490000
    59  C          0.18550160       0.22364120       0.49826100
    60  C          0.81449840       0.77635880       0.50173900
    61  H          0.15930000       0.31730000       0.52000000
    62  H          0.84070000       0.68270000       0.48000000
    63  C          0.21450150       0.12729120       0.57078900
    64  C          0.78549850       0.87270880       0.42921100
    65  H          0.20910000       0.15410000       0.64210000
    66  H          0.79090000       0.84590000       0.35790000
    67  C          0.25197140      -0.01023880       0.53766800
    68  C          0.74802860       0.01023880       0.46233200
    69  C          0.27852140       0.86244120       0.59037800
    70  C          0.72147860       0.13755880       0.40962200
    71  C          0.28425150       0.83218130       0.69370800
    72  C          0.71574850       0.16781870       0.30629200
    73  H          0.26980000       0.90520000       0.74610000
    74  H          0.73020000       0.09480000       0.25390000
    75  C          0.31115160       0.69501130       0.71919900
    76  C          0.68884840       0.30498870       0.28080100
    77  H          0.31210000       0.67300000       0.78920000
    78  H          0.68790000       0.32700000       0.21080000
    79  C          0.33701160       0.58857130       0.64255900
    80  C          0.66298840       0.41142870       0.35744100
    81  H          0.35890000       0.49590000       0.66170000
    82  H          0.64110000       0.50410000       0.33830000
    83  C          0.33145150       0.61520120       0.53941800
    84  C          0.66854850       0.38479880       0.46058200
    85  H          0.34930000       0.54260000       0.48760000
    86  H          0.65070000       0.45740000       0.51240000
    87  C          0.29868140       0.75221110       0.51416800
    88  C          0.70131860       0.24778890       0.48583200
