data_GADGUN
_symmetry_space_group_name_H-M    'P1'
_symmetry_Int_Tables_number       1
loop_
_symmetry_equiv_pos_site_id
_symmetry_equiv_pos_as_xyz
1 x,y,z
_cell_length_a                   7.4086
_cell_length_b                   8.9347
_cell_length_c                   13.6539
_cell_angle_alpha                100.156
_cell_angle_beta                 118.506
_cell_angle_gamma                103.676
loop_
_atom_site_label
_atom_site_type_symbol
_atom_site_fract_x
_atom_site_fract_y
_atom_site_fract_z
     1  O          0.28444000       0.78573000       0.32612000
     2  O          0.71556000       0.21427000       0.67388000
     3  Cl         0.06492000       0.92101000       0.14401000
     4  Cl         0.93508000       0.07899000       0.85599000
     5  Cl         0.66018000       0.66311000       0.90609000
     6  Cl         0.33982000       0.33689000       0.09391000
     7  Cl         0.52168000       0.29141000       0.87859000
     8  Cl         0.47832000       0.70859000       0.12141000
     9  Cl         0.78908000       0.18471000       0.09191000
    10  Cl         0.21092000       0.81529000       0.90809000
    11  Cl         0.20212000       0.44531000       0.32881000
    12  Cl         0.79788000       0.55469000       0.67119000
    13  C          0.11685000       0.67254000       0.22633000
    14  C          0.88315000       0.32746000       0.77367000
    15  C         -0.01065000       0.71644000       0.12853000
    16  C          0.01065000       0.28356000       0.87147000
    17  C          0.80825000       0.60114000       0.02303000
    18  C          0.19175000       0.39886000       0.97697000
    19  C          0.74565000       0.43554000       0.01043000
    20  C          0.25435000       0.56446000      -0.01043000
    21  C          0.86715000       0.38844000       0.10583000
    22  C          0.13285000       0.61156000       0.89417000
    23  C          0.04995000       0.50434000       0.21083000
    24  C          0.95005000       0.49566000       0.78917000
    25  H          0.44480000       0.77260000       0.37040000
    26  H          0.55520000       0.22740000       0.62960000
    27  N          0.66925000       0.77724000       0.44693000
    28  N          0.33075000       0.22276000       0.55307000
    29  C          0.81096000       0.89344000       0.55183000
    30  C          0.18904000       0.10656000       0.44817000
    31  C          0.02986000       0.91245000       0.61954000
    32  C         -0.02986000       0.08755000       0.38046000
    33  C          0.10936000       0.81005000       0.57763000
    34  C          0.89064000       0.18995000       0.42237000
    35  C          0.96307000       0.69185000       0.46834000
    36  C          0.03693000       0.30815000       0.53166000
    37  C          0.74507000       0.67735000       0.40584000
    38  C          0.25493000       0.32265000       0.59416000
    39  C          0.35008000       0.82908000       0.65037000
    40  C          0.64992000       0.17092000       0.34963000
    41  H          0.75550000       0.95940000       0.58030000
    42  H          0.24450000       0.04060000       0.41970000
    43  H          0.11650000      -0.00660000       0.69230000
    44  H          0.88350000       0.00660000       0.30770000
    45  H          0.00260000       0.62440000       0.43230000
    46  H         -0.00260000       0.37560000       0.56770000
    47  H          0.63060000       0.59940000       0.32930000
    48  H          0.36940000       0.40060000       0.67070000
    49  H          0.36790000       0.74760000       0.60650000
    50  H          0.63210000       0.25240000       0.39350000
    51  H          0.44680000       0.93460000       0.67140000
    52  H          0.55320000       0.06540000       0.32860000
    53  H          0.37290000       0.80580000       0.71350000
    54  H          0.62710000       0.19420000       0.28650000
