data_GADGUN09
_symmetry_space_group_name_H-M    'P1'
_symmetry_Int_Tables_number       1
loop_
_symmetry_equiv_pos_site_id
_symmetry_equiv_pos_as_xyz
1 x,y,z
_cell_length_a                   3.83858
_cell_length_b                   27.4406
_cell_length_c                   12.9243
_cell_angle_alpha                90.0
_cell_angle_beta                 95.523
_cell_angle_gamma                90.0
loop_
_atom_site_label
_atom_site_type_symbol
_atom_site_fract_x
_atom_site_fract_y
_atom_site_fract_z
     1  Cl         0.07191300       0.57683160       0.57785000
     2  Cl         0.57191300       0.07683160       0.57785000
     3  Cl         0.07191300       0.42316840       0.07785000
     4  Cl         0.57191300       0.92316840       0.07785000
     5  C          0.92740000       0.62373000       0.49637000
     6  C          0.42740000       0.12373000       0.49637000
     7  C          0.92740000       0.37627000      -0.00363000
     8  C          0.42740000       0.87627000      -0.00363000
     9  C         -0.03660000       0.62063000       0.38977000
    10  C          0.46340000       0.12063000       0.38977000
    11  C         -0.03660000       0.37937000       0.88977000
    12  C          0.46340000       0.87937000       0.88977000
    13  Cl         0.13881200       0.56895140       0.34075000
    14  Cl         0.63881200       0.06895140       0.34075000
    15  Cl         0.13881200       0.43104860       0.84075000
    16  Cl         0.63881200       0.93104860       0.84075000
    17  C          0.85540000       0.65913000       0.32516000
    18  C          0.35540000       0.15913000       0.32516000
    19  C          0.85540000       0.34087000       0.82516000
    20  C          0.35540000       0.84087000       0.82516000
    21  Cl         0.89821300       0.65534150       0.19534000
    22  Cl         0.39821300       0.15534150       0.19534000
    23  Cl         0.89821300       0.34465850       0.69534000
    24  Cl         0.39821300       0.84465850       0.69534000
    25  C          0.70840000       0.70073000       0.36607000
    26  C          0.20840000       0.20073000       0.36607000
    27  C          0.70840000       0.29927000       0.86607000
    28  C          0.20840000       0.79927000       0.86607000
    29  Cl         0.57451200       0.74782140       0.28585000
    30  Cl         0.07451200       0.24782140       0.28585000
    31  Cl         0.57451200       0.25217860       0.78585000
    32  Cl         0.07451200       0.75217860       0.78585000
    33  C          0.67340000       0.70303000       0.47127000
    34  C          0.17340000       0.20303000       0.47127000
    35  C          0.67340000       0.29697000       0.97127000
    36  C          0.17340000       0.79697000       0.97127000
    37  C          0.78440000       0.66513000       0.53757000
    38  C          0.28440000       0.16513000       0.53757000
    39  C          0.78440000       0.33487000       0.03757000
    40  C          0.28440000       0.83487000       0.03757000
    41  O          0.74320000       0.67063000       0.63798000
    42  O          0.24320000       0.17063000       0.63798000
    43  O          0.74320000       0.32937000       0.13798000
    44  O          0.24320000       0.82937000       0.13798000
    45  Cl         0.51261200       0.75483140       0.52505000
    46  Cl         0.01261200       0.25483140       0.52505000
    47  Cl         0.51261200       0.24516860       0.02505000
    48  Cl         0.01261200       0.74516860       0.02505000
    49  H          0.72170000       0.65120000       0.68470000
    50  H          0.22170000       0.15120000       0.68470000
    51  H          0.72170000       0.34880000       0.18470000
    52  H          0.22170000       0.84880000       0.18470000
    53  N          0.67540000       0.60885000       0.78961000
    54  N          0.17540000       0.10885000       0.78961000
    55  N          0.67540000       0.39115000       0.28961000
    56  N          0.17540000       0.89115000       0.28961000
    57  C          0.56640000       0.63664000       0.86441200
    58  C          0.06640000       0.13664000       0.86441200
    59  C          0.56640000       0.36336000       0.36441200
    60  C          0.06640000       0.86336000       0.36441200
    61  C          0.47540000       0.61894000       0.95461100
    62  C         -0.02460000       0.11894000       0.95461100
    63  C          0.47540000       0.38106000       0.45461100
    64  C         -0.02460000       0.88106000       0.45461100
    65  C          0.71850000       0.56165000       0.81311100
    66  C          0.21850000       0.06165000       0.81311100
    67  C          0.71850000       0.43835000       0.31311100
    68  C          0.21850000       0.93835000       0.31311100
    69  C          0.64440000       0.54144000       0.90561100
    70  C          0.14440000       0.04144000       0.90561100
    71  C          0.64440000       0.45856000       0.40561100
    72  C          0.14440000       0.95856000       0.40561100
    73  C          0.43340000       0.54966000       0.08141100
    74  C          0.93340000       0.04966000       0.08141100
    75  C          0.43340000       0.45034000       0.58141100
    76  C          0.93340000       0.95034000       0.58141100
    77  C          0.51450000       0.57044000       0.97841000
    78  C          0.01450000       0.07044000       0.97841000
    79  C          0.51450000       0.42956000       0.47841000
    80  C          0.01450000       0.92956000       0.47841000
    81  H          0.53830000       0.66950000       0.85040000
    82  H          0.03830000       0.16950000       0.85040000
    83  H          0.53830000       0.33050000       0.35040000
    84  H          0.03830000       0.83050000       0.35040000
    85  H          0.38790000       0.64020000       0.00140000
    86  H          0.88790000       0.14020000       0.00140000
    87  H          0.38790000       0.35980000       0.50140000
    88  H          0.88790000       0.85980000       0.50140000
    89  H          0.80340000       0.54070000       0.76560000
    90  H          0.30340000       0.04070000       0.76560000
    91  H          0.80340000       0.45930000       0.26560000
    92  H          0.30340000       0.95930000       0.26560000
    93  H          0.67310000       0.50830000       0.91780000
    94  H          0.17310000       0.00830000       0.91780000
    95  H          0.67310000       0.49170000       0.41780000
    96  H          0.17310000       0.99170000       0.41780000
    97  H          0.34140000       0.51740000       0.07010000
    98  H          0.84140000       0.01740000       0.07010000
    99  H          0.34140000       0.48260000       0.57010000
   100  H          0.84140000       0.98260000       0.57010000
   101  H          0.64060000       0.54840000       0.12880000
   102  H          0.14060000       0.04840000       0.12880000
   103  H          0.64060000       0.45160000       0.62880000
   104  H          0.14060000       0.95160000       0.62880000
   105  H          0.25890000       0.56940000       0.10890000
   106  H          0.75890000       0.06940000       0.10890000
   107  H          0.25890000       0.43060000       0.60890000
   108  H          0.75890000       0.93060000       0.60890000
