data_GADGUN02
_symmetry_space_group_name_H-M    'P1'
_symmetry_Int_Tables_number       1
loop_
_symmetry_equiv_pos_site_id
_symmetry_equiv_pos_as_xyz
1 x,y,z
_cell_length_a                   7.2677
_cell_length_b                   8.9669
_cell_length_c                   13.11014
_cell_angle_alpha                99.708
_cell_angle_beta                 118.169
_cell_angle_gamma                103.388
loop_
_atom_site_label
_atom_site_type_symbol
_atom_site_fract_x
_atom_site_fract_y
_atom_site_fract_z
     1  O          0.29092000       0.78782000       0.33312900
     2  O          0.70908000       0.21218000       0.66687100
     3  Cl         0.05449500       0.91662400       0.13927300
     4  Cl         0.94550500       0.08337600       0.86072700
     5  Cl         0.64905500       0.65614400       0.89933700
     6  Cl         0.35094500       0.34385600       0.10066300
     7  Cl         0.52573500       0.28819400       0.87967700
     8  Cl         0.47426500       0.71180600       0.12032300
     9  Cl         0.80945400       0.18910400       0.10343300
    10  Cl         0.19054600       0.81089600       0.89656700
    11  Cl         0.22563500       0.45225400       0.34247300
    12  Cl         0.77436500       0.54774600       0.65752700
    13  C          0.12313000       0.67512000       0.23279120
    14  C          0.87687000       0.32488000       0.76720880
    15  C         -0.01293000       0.71552000       0.12921120
    16  C          0.01293000       0.28448000       0.87078880
    17  C          0.80517000       0.59812000       0.02159120
    18  C          0.19483000       0.40188000       0.97840880
    19  C          0.74917000       0.43432000       0.01277130
    20  C          0.25083000       0.56568000       0.98722870
    21  C          0.87807000       0.38982000       0.11290130
    22  C          0.12193000       0.61018000       0.88709870
    23  C          0.06173000       0.50802000       0.21966130
    24  C          0.93827000       0.49198000       0.78033870
    25  H          0.47780000       0.78060000       0.38840000
    26  H          0.52220000       0.21940000       0.61160000
    27  N          0.67982000       0.78362000       0.45130110
    28  N          0.32018000       0.21638000       0.54869890
    29  C          0.82183000       0.90282000       0.55865130
    30  C          0.17817000       0.09718000       0.44134870
    31  C          0.04503000       0.92222000       0.62713130
    32  C          0.95497000       0.07778000       0.37286870
    33  C          0.12713000       0.81812000       0.58369140
    34  C          0.87287000       0.18188000       0.41630860
    35  C         -0.02317000       0.69662000       0.47134140
    36  C          0.02317000       0.30338000       0.52865860
    37  C          0.75473000       0.68142000       0.40787130
    38  C          0.24527000       0.31858000       0.59212870
    39  C          0.36913000       0.83783000       0.65612170
    40  C          0.63087000       0.16217000       0.34387830
    41  H          0.75740000       0.97230000       0.58530000
    42  H          0.24260000       0.02770000       0.41470000
    43  H          0.13750000       0.00830000       0.70430000
    44  H          0.86250000      -0.00830000       0.29570000
    45  H          0.03050000       0.63040000       0.44630000
    46  H         -0.03050000       0.36960000       0.55370000
    47  H          0.64740000       0.59930000       0.33320000
    48  H          0.35260000       0.40070000       0.66680000
    49  H          0.40460000       0.75240000       0.63030000
    50  H          0.59540000       0.24760000       0.36970000
    51  H          0.46250000       0.94840000       0.66230000
    52  H          0.53750000       0.05160000       0.33770000
    53  H          0.41550000       0.84240000       0.74030000
    54  H          0.58450000       0.15760000       0.25970000
