data_GAVLEY01
_symmetry_space_group_name_H-M    'P1'
_symmetry_Int_Tables_number       1
loop_
_symmetry_equiv_pos_site_id
_symmetry_equiv_pos_as_xyz
1 x,y,z
_cell_length_a                   19.88414
_cell_length_b                   7.6235
_cell_length_c                   6.8455
_cell_angle_alpha                90.0
_cell_angle_beta                 90.0
_cell_angle_gamma                90.0
loop_
_atom_site_label
_atom_site_type_symbol
_atom_site_fract_x
_atom_site_fract_y
_atom_site_fract_z
     1  Cl         0.87490840       0.42443000       0.65944000
     2  Cl         0.62509160       0.57557000       0.15944000
     3  Cl         0.37490840       0.07557000       0.34056000
     4  Cl         0.12509160       0.92443000       0.84056000
     5  O          0.21223000       0.19194000       0.19089000
     6  O          0.28777000       0.80806000       0.69089000
     7  O          0.71223000       0.30806000       0.80911000
     8  O          0.78777000       0.69194000       0.30911000
     9  O          0.20964000       0.25726000       0.49737000
    10  O          0.29036000       0.74274000      -0.00263000
    11  O          0.70964000       0.24274000       0.50263000
    12  O          0.79036000       0.75726000       0.00263000
    13  N          0.23329170       0.85086000       0.30171300
    14  N          0.26670830       0.14914000       0.80171300
    15  N          0.73329170       0.64914000       0.69828700
    16  N          0.76670830       0.35086000       0.19828700
    17  C          0.20699130       0.29744000       0.32617000
    18  C          0.29300870       0.70256000       0.82617000
    19  C          0.70699130       0.20256000       0.67383000
    20  C          0.79300870       0.79744000       0.17383000
    21  C          0.17707130       0.47624000       0.25404000
    22  C          0.32292870       0.52376000       0.75404000
    23  C          0.67707130       0.02376000       0.74596000
    24  C          0.82292870       0.97624000       0.24596000
    25  C          0.15651130       0.60973000       0.40466000
    26  C          0.34348870       0.39027000       0.90466000
    27  C          0.65651130       0.89027000       0.59534000
    28  C          0.84348870       0.10973000       0.09534000
    29  C          0.16326150       0.80123000       0.35381100
    30  C          0.33673850       0.19877000       0.85381100
    31  C          0.66326150       0.69877000       0.64618900
    32  C          0.83673850       0.30123000       0.14618900
    33  C          0.08571130       0.56233000       0.46674000
    34  C          0.41428870       0.43767000       0.96674000
    35  C          0.58571130       0.93767000       0.53326000
    36  C          0.91428870       0.06233000       0.03326000
    37  C          0.07446160       0.47134000       0.63955000
    38  C          0.42553840       0.52866000       0.13955000
    39  C          0.57446160       0.02866000       0.36045000
    40  C          0.92553840       0.97134000       0.86045000
    41  C          0.01001170       0.42684000       0.69845000
    42  C          0.48998830       0.57316000       0.19845000
    43  C          0.51001170       0.07316000       0.30155000
    44  C          0.98998830       0.92684000       0.80155000
    45  C          0.95613850       0.47663000       0.58473000
    46  C          0.54386150       0.52337000       0.08473000
    47  C          0.45613850       0.02337000       0.41527000
    48  C          0.04386150       0.97663000       0.91527000
    49  C          0.96521870       0.56744000       0.41194000
    50  C          0.53478130       0.43256000       0.91194000
    51  C          0.46521870       0.93256000       0.58806000
    52  C          0.03478130       0.06744000       0.08806000
    53  C          0.03029130       0.60914000       0.35284000
    54  C          0.46970870       0.39086000       0.85284000
    55  C          0.53029130       0.89086000       0.64716000
    56  C          0.96970870       0.10914000       0.14716000
    57  H          0.22762000       0.08104000       0.22521100
    58  H          0.27238000       0.91896000       0.72521100
    59  H          0.72762000       0.41896000       0.77478900
    60  H          0.77238000       0.58104000       0.27478900
    61  H          0.26652000       0.73418000       0.31520000
    62  H          0.23348000       0.26582000       0.81520000
    63  H          0.76652000       0.76582000       0.68480000
    64  H          0.73348000       0.23418000       0.18480000
    65  H          0.25124000       0.95519000       0.40241600
    66  H          0.24876000       0.04481000       0.90241600
    67  H          0.75124000       0.54481000       0.59758400
    68  H          0.74876000       0.45519000       0.09758400
    69  H          0.13107160       0.47916000       0.18715000
    70  H          0.36892840       0.52084000       0.68715000
    71  H          0.63107160       0.02084000       0.81285000
    72  H          0.86892840       0.97916000       0.31285000
    73  H          0.22292170       0.52135000       0.19305000
    74  H          0.27707830       0.47865000       0.69305000
    75  H          0.72292170       0.97865000       0.80695000
    76  H          0.77707830       0.02135000       0.30695000
    77  H          0.19195140       0.57995000       0.53146000
    78  H          0.30804860       0.42005000       0.03146000
    79  H          0.69195140       0.92005000       0.46854000
    80  H          0.80804860       0.07995000       0.96854000
    81  H          0.14646000       0.88324000       0.48421800
    82  H          0.35354000       0.11676000      -0.01578200
    83  H          0.64646000       0.61676000       0.51578200
    84  H          0.85354000       0.38324000       0.01578200
    85  H          0.12974000       0.83297000       0.22320000
    86  H          0.37026000       0.16703000       0.72320000
    87  H          0.62974000       0.66703000       0.77680000
    88  H          0.87026000       0.33297000       0.27680000
    89  H          0.11875180       0.43187000       0.73597000
    90  H          0.38124820       0.56813000       0.23597000
    91  H          0.61875180       0.06813000       0.26403000
    92  H          0.88124820       0.93187000       0.76403000
    93  H          0.00122000       0.34997000       0.83925000
    94  H          0.49878000       0.65003000       0.33925000
    95  H          0.50122000       0.15003000       0.16075000
    96  H         -0.00122000       0.84997000       0.66075000
    97  H          0.92042870       0.60817000       0.31816000
    98  H          0.57957130       0.39183000       0.81816000
    99  H          0.42042870       0.89183000       0.68184000
   100  H          0.07957130       0.10817000       0.18184000
   101  H          0.03800140       0.68257000       0.20936000
   102  H          0.46199860       0.31743000       0.70936000
   103  H          0.53800140       0.81743000       0.79064000
   104  H          0.96199860       0.18257000       0.29064000
