data_GAVLEY
_symmetry_space_group_name_H-M    'P1'
_symmetry_Int_Tables_number       1
loop_
_symmetry_equiv_pos_site_id
_symmetry_equiv_pos_as_xyz
1 x,y,z
_cell_length_a                   6.89135
_cell_length_b                   7.68985
_cell_length_c                   19.752714
_cell_angle_alpha                90.0
_cell_angle_beta                 90.0
_cell_angle_gamma                90.0
loop_
_atom_site_label
_atom_site_type_symbol
_atom_site_fract_x
_atom_site_fract_y
_atom_site_fract_z
     1  Cl         0.90826700       0.16066700       0.88304200
     2  Cl         0.59173300       0.83933300       0.38304200
     3  Cl         0.09173300       0.66066700       0.61695800
     4  Cl         0.40826700       0.33933300       0.11695800
     5  N          0.58422000       0.60260180       0.52352700
     6  N          0.91578000       0.39739820       0.02352700
     7  N          0.41578000       0.10260180       0.97647300
     8  N          0.08422000       0.89739820       0.47647300
     9  O          0.76064190       0.02092170       0.54492700
    10  O          0.73935810       0.97907830       0.04492700
    11  O          0.23935810       0.52092170       0.95507300
    12  O          0.26064190       0.47907830       0.45507300
    13  O          0.45342190       0.93397840       0.53636700
    14  O          0.04657810       0.06602160       0.03636700
    15  O          0.54657810       0.43397840       0.96363300
    16  O          0.95342190       0.56602160       0.46363300
    17  C          0.58253000       0.04662000       0.54937700
    18  C          0.91747000       0.95338000       0.04937700
    19  C          0.41747000       0.54662000       0.95062300
    20  C          0.08253000       0.45338000       0.45062300
    21  C          0.50852000       0.22552000       0.57066900
    22  C         -0.00852000       0.77448000       0.07066900
    23  C          0.49148000       0.72552000       0.92933100
    24  C          0.00852000       0.27448000       0.42933100
    25  H          0.40810000       0.20980000       0.60600000
    26  H          0.09190000       0.79020000       0.10600000
    27  H          0.59190000       0.70980000       0.89400000
    28  H          0.90810000       0.29020000       0.39400000
    29  H          0.44540000       0.28090000       0.53110000
    30  H          0.05460000       0.71910000       0.03110000
    31  H          0.55460000       0.78090000       0.96890000
    32  H          0.94540000       0.21910000       0.46890000
    33  C          0.66432000       0.34972000       0.59801800
    34  C          0.83568000       0.65028000       0.09801800
    35  C          0.33568000       0.84972000       0.90198200
    36  C          0.16432000       0.15028000       0.40198200
    37  H          0.78180000       0.33780000       0.56870000
    38  H          0.71820000       0.66220000       0.06870000
    39  H          0.21820000       0.83780000       0.93130000
    40  H          0.28180000       0.16220000       0.43130000
    41  C          0.59663000       0.53882000       0.59429800
    42  C          0.90337000       0.46118000       0.09429800
    43  C          0.40337000       0.03882000       0.90570200
    44  C          0.09663000       0.96118000       0.40570200
    45  H          0.46740000       0.54900000       0.61590000
    46  H          0.03260000       0.45100000       0.11590000
    47  H          0.53260000       0.04900000       0.88410000
    48  H          0.96740000       0.95100000       0.38410000
    49  H          0.68820000       0.61300000       0.61990000
    50  H          0.81180000       0.38700000       0.11990000
    51  H          0.31180000       0.11300000       0.88010000
    52  H          0.18820000       0.88700000       0.38010000
    53  C          0.72312000       0.30342000       0.67012800
    54  C          0.77688000       0.69658000       0.17012800
    55  C          0.27688000       0.80342000       0.82987200
    56  C          0.22312000       0.19658000       0.32987200
    57  C          0.61482000       0.35822000       0.72594800
    58  C          0.88518000       0.64178000       0.22594800
    59  C          0.38518000       0.85822000       0.77405200
    60  C          0.11482000       0.14178000       0.27405200
    61  H          0.50050000       0.42480000       0.71900000
    62  H         -0.00050000       0.57520000       0.21900000
    63  H          0.49950000       0.92480000       0.78100000
    64  H          0.00050000       0.07520000       0.28100000
    65  C          0.67193000       0.31662000       0.79192800
    66  C          0.82807000       0.68338000       0.29192800
    67  C          0.32807000       0.81662000       0.70807200
    68  C          0.17193000       0.18338000       0.20807200
    69  H          0.59860000       0.35600000       0.82970000
    70  H          0.90140000       0.64400000       0.32970000
    71  H          0.40140000       0.85600000       0.67030000
    72  H          0.09860000       0.14400000       0.17030000
    73  C          0.83703000       0.21722000       0.80119800
    74  C          0.66297000       0.78278000       0.30119800
    75  C          0.16297000       0.71722000       0.69880200
    76  C          0.33703000       0.28278000       0.19880200
    77  C          0.94593000       0.15903000       0.74684900
    78  C          0.55407000       0.84097000       0.24684900
    79  C          0.05407000       0.65903000       0.75315100
    80  C          0.44593000       0.34097000       0.25315100
    81  H          0.05800000       0.08960000       0.75400000
    82  H          0.44200000       0.91040000       0.25400000
    83  H          0.94200000       0.58960000       0.74600000
    84  H          0.55800000       0.41040000       0.24600000
    85  C          0.88863000       0.20372000       0.68165800
    86  C          0.61137000       0.79628000       0.18165800
    87  C          0.11137000       0.70372000       0.81834200
    88  C          0.38863000       0.29628000       0.31834200
    89  H          0.96390000       0.16550000       0.64420000
    90  H          0.53610000       0.83450000       0.14420000
    91  H          0.03610000       0.66550000       0.85580000
    92  H          0.46390000       0.33450000       0.35580000
    93  H          0.70150000       0.58640000       0.50311600
    94  H          0.79850000       0.41360000       0.00311600
    95  H          0.29850000       0.08640000      -0.00311600
    96  H          0.20150000       0.91360000       0.49688400
    97  H          0.55540000       0.72130000       0.52451100
    98  H          0.94460000       0.27870000       0.02451100
    99  H          0.44460000       0.22130000       0.97548900
   100  H          0.05540000       0.77870000       0.47548900
   101  H          0.49040000       0.55740000       0.50211400
   102  H          0.00960000       0.44260000       0.00211400
   103  H          0.50960000       0.05740000      -0.00211400
   104  H         -0.00960000       0.94260000       0.49788600
