data_GAVLEY02
_symmetry_space_group_name_H-M    'P1'
_symmetry_Int_Tables_number       1
loop_
_symmetry_equiv_pos_site_id
_symmetry_equiv_pos_as_xyz
1 x,y,z
_cell_length_a                   24.31218
_cell_length_b                   7.0055
_cell_length_c                   5.8314
_cell_angle_alpha                90.0
_cell_angle_beta                 90.0
_cell_angle_gamma                90.0
loop_
_atom_site_label
_atom_site_type_symbol
_atom_site_fract_x
_atom_site_fract_y
_atom_site_fract_z
     1  Cl         0.90159830       0.06357000       0.90438700
     2  Cl         0.59840170       0.93643000       0.40438700
     3  Cl         0.40159830       0.43643000       0.09561300
     4  Cl         0.09840170       0.56357000       0.59561300
     5  O          0.24053000       0.72548800       0.11920000
     6  O          0.25947000       0.27451200       0.61920000
     7  O          0.74053000       0.77451200       0.88080000
     8  O          0.75947000       0.22548800       0.38080000
     9  O          0.21949190       0.87568900       0.42961800
    10  O          0.28050810       0.12431100       0.92961800
    11  O          0.71949190       0.62431100       0.57038200
    12  O          0.78050810       0.37568900       0.07038200
    13  N          0.22303000       0.33701400       0.17620000
    14  N          0.27697000       0.66298600       0.67620000
    15  N          0.72303000       0.16298600       0.82380000
    16  N          0.77697000       0.83701400       0.32380000
    17  C          0.21576170       0.85124000       0.22441900
    18  C          0.28423830       0.14876000       0.72441900
    19  C          0.71576170       0.64876000       0.77558100
    20  C          0.78423830       0.35124000       0.27558100
    21  C          0.16762000       0.93621000       0.07771700
    22  C          0.33238000       0.06379000       0.57771700
    23  C          0.66762000       0.56379000       0.92228300
    24  C          0.83238000       0.43621000       0.42228300
    25  C          0.14182000       0.12076000       0.15451500
    26  C          0.35818000       0.87924000       0.65451500
    27  C          0.64182000       0.37924000       0.84548500
    28  C          0.85818000       0.62076000       0.34548500
    29  C          0.16752000       0.30529000       0.07620000
    30  C          0.33248000       0.69471000       0.57620000
    31  C          0.66752000       0.19471000       0.92380000
    32  C          0.83248000       0.80529000       0.42380000
    33  C          0.08143180       0.10834000       0.09231100
    34  C          0.41856820       0.89166000       0.59231100
    35  C          0.58143180       0.39166000       0.90768900
    36  C          0.91856820       0.60834000       0.40768900
    37  C          0.06533170       0.04311200       0.87758900
    38  C          0.43466830       0.95688800       0.37758900
    39  C          0.56533170       0.45688800       0.12241100
    40  C          0.93466830       0.54311200       0.62241100
    41  C          0.01028180       0.03101300       0.81779000
    42  C          0.48971820       0.96898700       0.31779000
    43  C          0.51028180       0.46898700       0.18221000
    44  C          0.98971820       0.53101300       0.68221000
    45  C          0.97087830       0.08185000      -0.02389000
    46  C          0.52912170       0.91815000       0.47611000
    47  C          0.47087830       0.41815000       0.02389000
    48  C          0.02912170       0.58185000       0.52389000
    49  C          0.98518000       0.14721300       0.19171000
    50  C          0.51482000       0.85278700       0.69171000
    51  C          0.48518000       0.35278700       0.80829000
    52  C          0.01482000       0.64721300       0.30829000
    53  C          0.04072000       0.16131400       0.24851100
    54  C          0.45928000       0.83868600       0.74851100
    55  C          0.54072000       0.33868600       0.75148900
    56  C          0.95928000       0.66131400       0.25148900
    57  H          0.26854000       0.66478600       0.19930000
    58  H          0.23146000       0.33521400       0.69930000
    59  H          0.76854000       0.83521400       0.80070000
    60  H          0.73146000       0.16478600       0.30070000
    61  H          0.23345000       0.21720000       0.29340000
    62  H          0.26655000       0.78280000       0.79340000
    63  H          0.73345000       0.28280000       0.70660000
    64  H          0.76655000       0.71720000       0.20660000
    65  H          0.22317000       0.47320000       0.27530000
    66  H          0.27683000       0.52680000       0.77530000
    67  H          0.72317000       0.02680000       0.72470000
    68  H          0.77683000       0.97320000       0.22470000
    69  H          0.13062000       0.86721000       0.07120000
    70  H          0.36938000       0.13279000       0.57120000
    71  H          0.63062000       0.63279000       0.92880000
    72  H          0.86938000       0.36721000       0.42880000
    73  H          0.19293000       0.96988300       0.93508500
    74  H          0.30707000       0.03011700       0.43508500
    75  H          0.69293000       0.53011700       0.06491500
    76  H          0.80707000       0.46988300       0.56491500
    77  H          0.14553000       0.11249000       0.34931500
    78  H          0.35447000       0.88751000       0.84931500
    79  H          0.64553000       0.38751000       0.65068500
    80  H          0.85447000       0.61249000       0.15068500
    81  H          0.13953000       0.42897000       0.12750000
    82  H          0.36047000       0.57103000       0.62750000
    83  H          0.63953000       0.07103000       0.87250000
    84  H          0.86047000       0.92897000       0.37250000
    85  H          0.17207000       0.30420000       0.88080000
    86  H          0.32793000       0.69580000       0.38080000
    87  H          0.67207000       0.19580000       0.11920000
    88  H          0.82793000       0.80420000       0.61920000
    89  H          0.09769190      -0.00220000       0.74648600
    90  H          0.40230810       0.00220000       0.24648600
    91  H          0.59769190       0.50220000       0.25351400
    92  H          0.90230810       0.49780000       0.75351400
    93  H         -0.00262000       0.97980000       0.63998600
    94  H          0.50262000       0.02020000       0.13998600
    95  H          0.49738000       0.52020000       0.36001400
    96  H          0.00262000       0.47980000       0.86001400
    97  H          0.95237000       0.18920000       0.32221300
    98  H          0.54763000       0.81080000       0.82221300
    99  H          0.45237000       0.31080000       0.67778700
   100  H          0.04763000       0.68920000       0.17778700
   101  H          0.05273000       0.21720000       0.42551500
   102  H          0.44727000       0.78280000       0.92551500
   103  H          0.55273000       0.28280000       0.57448500
   104  H          0.94727000       0.71720000       0.07448500
