data_GEHXEX02
_symmetry_space_group_name_H-M    'P1'
_symmetry_Int_Tables_number       1
loop_
_symmetry_equiv_pos_site_id
_symmetry_equiv_pos_as_xyz
1 x,y,z
_cell_length_a                   7.75345
_cell_length_b                   12.13849
_cell_length_c                   9.60807
_cell_angle_alpha                90.0
_cell_angle_beta                 118.7802
_cell_angle_gamma                90.0
loop_
_atom_site_label
_atom_site_type_symbol
_atom_site_fract_x
_atom_site_fract_y
_atom_site_fract_z
     1  Cl        -0.00174800       0.92835800       0.28515900
     2  Cl         0.00174800       0.42835800       0.71484100
     3  N          0.16202000       0.31253140       0.25965180
     4  N          0.83798000       0.81253140       0.74034820
     5  N          0.70422000       0.44149180       0.01852000
     6  N          0.29578000       0.94149180       0.98148000
     7  H          0.22190000       0.78120000       0.51530000
     8  H          0.77810000       0.28120000       0.48470000
     9  H          0.81330000       0.43841500       0.01520000
    10  H          0.18670000       0.93841500      -0.01520000
    11  H          0.97080000       0.79050000       0.03030000
    12  H          0.02920000       0.29050000       0.96970000
    13  H          0.09800000       0.61370000       0.01810000
    14  H          0.90200000       0.11370000       0.98190000
    15  H          0.48570000       0.65320000       0.62370000
    16  H          0.51430000       0.15320000       0.37630000
    17  H          0.30300000       0.58550000       0.62330000
    18  H          0.69700000       0.08550000       0.37670000
    19  H          0.56990000       0.47600000       0.69110000
    20  H          0.43010000       0.97600000       0.30890000
    21  H          0.59040000       0.50210000       0.51900000
    22  H          0.40960000       0.00210000       0.48100000
    23  H          0.40350000       0.30710000       0.70140000
    24  H          0.59650000       0.80710000       0.29860000
    25  H          0.19070000       0.16360000       0.56520000
    26  H          0.80930000       0.66360000       0.43480000
    27  H          0.05220000       0.17170000       0.28930000
    28  H          0.94780000       0.67170000       0.71070000
    29  H          0.43460000       0.63090000       0.08140000
    30  H          0.56540000       0.13090000       0.91860000
    31  H          0.37430000       0.55080000       0.92540000
    32  H          0.62570000       0.05080000       0.07460000
    33  H          0.45340000       0.30020000       0.18350000
    34  H          0.54660000       0.80020000       0.81650000
    35  H          0.39540000       0.33910000      -0.00490000
    36  H          0.60460000       0.83910000       0.00490000
    37  H          0.75120000       0.38520000       0.24390000
    38  H          0.24880000       0.88520000       0.75610000
    39  H          0.72100000       0.28240000       0.10820000
    40  H          0.27900000       0.78240000       0.89180000
    41  H          0.74350000       0.56580000       0.17930000
    42  H          0.25650000       0.06580000       0.82070000
    43  H          0.68040000       0.60850000      -0.01130000
    44  H          0.31960000       0.10850000       0.01130000
    45  C          0.19632000       0.74729160       0.41082000
    46  C          0.80368000       0.24729160       0.58918000
    47  C          0.08742000       0.79776150       0.27372000
    48  C          0.91258000       0.29776150       0.72628000
    49  C          0.04642000       0.74864160       0.12782000
    50  C          0.95358000       0.24864160       0.87218000
    51  C          0.12132000       0.64636150       0.12158180
    52  C          0.87868000       0.14636150       0.87841820
    53  C          0.23898190       0.59285140       0.25803160
    54  C          0.76101810       0.09285140       0.74196840
    55  C          0.27312000       0.64313140       0.40592170
    56  C          0.72688000       0.14313140       0.59407830
    57  C          0.38953000       0.59526170       0.56655190
    58  C          0.61047000       0.09526170       0.43344810
    59  C          0.49583000       0.48974170       0.57032000
    60  C          0.50417000      -0.01025830       0.42968000
    61  C          0.37272000       0.39425150       0.49840170
    62  C          0.62728000       0.89425150       0.50159830
    63  C          0.34153000       0.30736180       0.58572000
    64  C          0.65847000       0.80736180       0.41428000
    65  C          0.21994000       0.22465180       0.50953000
    66  C          0.78006000       0.72465180       0.49047000
    67  C          0.13493000       0.23152180       0.35003000
    68  C          0.86507000       0.73152180       0.64997000
    69  C          0.28052000       0.39215140       0.33407170
    70  C          0.71948000       0.89215140       0.66592830
    71  C          0.31482000       0.48325130       0.23633160
    72  C          0.68518000       0.98325130       0.76366840
    73  C          0.40622000       0.46622140       0.13597170
    74  C          0.59378000       0.96622140       0.86402830
    75  C          0.45672000       0.55617160       0.04172000
    76  C          0.54328000       0.05617160       0.95828000
    77  C          0.47623000       0.35493150       0.10982000
    78  C          0.52377000       0.85493150       0.89018000
    79  C          0.67923000       0.35975190       0.12742000
    80  C          0.32077000       0.85975190       0.87258000
    81  C          0.65903000       0.55001190       0.05833000
    82  C          0.34097000       0.05001190       0.94167000
