data_GEHXEX
_symmetry_space_group_name_H-M    'P1'
_symmetry_Int_Tables_number       1
loop_
_symmetry_equiv_pos_site_id
_symmetry_equiv_pos_as_xyz
1 x,y,z
_cell_length_a                   6.933612
_cell_length_b                   11.9982
_cell_length_c                   9.469116
_cell_angle_alpha                90.0
_cell_angle_beta                 107.3652
_cell_angle_gamma                90.0
loop_
_atom_site_label
_atom_site_type_symbol
_atom_site_fract_x
_atom_site_fract_y
_atom_site_fract_z
     1  Cl         0.30938700       0.73689600       0.25228500
     2  Cl         0.69061300       0.23689600       0.74771500
     3  N          0.03823000       0.35354150       0.23443180
     4  N          0.96177000       0.85354150       0.76556820
     5  N          0.30263000       0.21123170      -0.00942000
     6  N          0.69737000       0.71123170       0.00942000
     7  C          0.02183000       0.27342180       0.32922000
     8  C         -0.02183000       0.77342180       0.67078000
     9  C          0.15423000       0.44150190       0.29152000
    10  C          0.84577000       0.94150190       0.70848000
    11  C          0.25563000       0.45345190       0.43972000
    12  C          0.74437000       0.95345190       0.56028000
    13  C          0.23923000       0.37022180       0.53532000
    14  C          0.76077000       0.87022180       0.46468000
    15  C          0.12143000       0.27722180       0.48152000
    16  C          0.87857000       0.77722180       0.51848000
    17  C          0.09393000       0.18222180       0.57742000
    18  C          0.90607000       0.68222180       0.42258000
    19  C          0.20083000       0.07625190       0.55422000
    20  C          0.79917000       0.57625190       0.44578000
    21  C          0.14233000       0.02314180       0.40102000
    22  C          0.85767000       0.52314180       0.59898000
    23  C          0.23253000       0.92048820       0.39172000
    24  C          0.76747000       0.42048820       0.60828000
    25  C          0.19653000       0.86683810       0.25762000
    26  C          0.80347000       0.36683810       0.74238000
    27  C          0.07353000       0.91244810       0.12772000
    28  C          0.92647000       0.41244810       0.87228000
    29  C         -0.01777000       0.01259190       0.13792000
    30  C          0.01777000       0.51259190       0.86208000
    31  C          0.00773000       0.06879180       0.27212000
    32  C         -0.00773000       0.56879180       0.72788000
    33  C          0.89313000       0.17469180       0.26922000
    34  C          0.10687000       0.67469180       0.73078000
    35  C          0.68963000       0.17988180       0.21932000
    36  C          0.31037000       0.67988180       0.78068000
    37  C          0.55093000       0.08262000       0.16402000
    38  C          0.44907000       0.58262000       0.83598000
    39  C          0.41303000       0.10602190       0.00572000
    40  C          0.58697000       0.60602190      -0.00572000
    41  C          0.43553000       0.30502000       0.05112000
    42  C          0.56447000       0.80502000       0.94888000
    43  C          0.57333000       0.28702190       0.21002000
    44  C          0.42667000       0.78702190       0.78998000
    45  H          0.21430000       0.20620000       0.03420000
    46  H          0.78570000       0.70620000       0.96580000
    47  H          0.16730000       0.49900000       0.22600000
    48  H          0.83270000      -0.00100000       0.77400000
    49  H          0.33520000       0.51780000       0.47510000
    50  H          0.66480000       0.01780000       0.52490000
    51  H          0.30840000       0.37640000       0.63800000
    52  H          0.69160000       0.87640000       0.36200000
    53  H          0.94770000       0.16660000       0.55590000
    54  H          0.05230000       0.66660000       0.44410000
    55  H          0.14640000       0.20480000       0.68250000
    56  H          0.85360000       0.70480000       0.31750000
    57  H          0.18020000       0.01970000       0.62440000
    58  H          0.81980000       0.51970000       0.37560000
    59  H          0.34740000       0.09240000       0.58270000
    60  H          0.65260000       0.59240000       0.41730000
    61  H          0.31950000       0.88730000       0.47850000
    62  H          0.68050000       0.38730000       0.52150000
    63  H          0.05430000       0.87268100       0.03920000
    64  H          0.94570000       0.37268100       0.96080000
    65  H          0.89770000       0.04530000       0.04970000
    66  H          0.10230000       0.54530000       0.95030000
    67  H          0.46700000       0.06970000       0.23070000
    68  H          0.53300000       0.56970000       0.76930000
    69  H          0.63180000       0.01460000       0.16400000
    70  H          0.36820000       0.51460000       0.83600000
    71  H          0.49680000       0.10670000       0.93740000
    72  H          0.50320000       0.60670000       0.06260000
    73  H          0.31450000       0.04430000       0.97500000
    74  H          0.68550000       0.54430000       0.02500000
    75  H          0.35150000       0.37200000       0.04940000
    76  H          0.64850000       0.87200000       0.95060000
    77  H          0.52110000       0.31980000      -0.01380000
    78  H          0.47890000       0.81980000       0.01380000
    79  H          0.66860000       0.35020000       0.23960000
    80  H          0.33140000       0.85020000       0.76040000
    81  H          0.49040000       0.28400000       0.27890000
    82  H          0.50960000       0.78400000       0.72110000
