data_GEHXEX04
_symmetry_space_group_name_H-M    'P1'
_symmetry_Int_Tables_number       1
loop_
_symmetry_equiv_pos_site_id
_symmetry_equiv_pos_as_xyz
1 x,y,z
_cell_length_a                   14.8187
_cell_length_b                   12.2236
_cell_length_c                   9.6315
_cell_angle_alpha                90.0
_cell_angle_beta                 113.25514
_cell_angle_gamma                90.0
loop_
_atom_site_label
_atom_site_type_symbol
_atom_site_fract_x
_atom_site_fract_y
_atom_site_fract_z
     1  N          0.21012000       0.00982000       0.28633000
     2  N          0.78988000       0.50982000       0.71367000
     3  N          0.59682000       0.86763000       0.45894000
     4  N          0.40318000       0.36763000       0.54106000
     5  H          0.10270000       0.54230000       0.03550000
     6  H          0.89730000       0.04230000       0.96450000
     7  H          0.64961700       0.86591800       0.44230000
     8  H          0.35038300       0.36591800       0.55770000
     9  H          0.21300000       0.53450000       0.49060000
    10  H          0.78700000       0.03450000       0.50940000
    11  H          0.28330000       0.70500000       0.49500000
    12  H          0.71670000       0.20500000       0.50500000
    13  H          0.08730000       0.74510000       0.92800000
    14  H          0.91270000       0.24510000       0.07200000
    15  H          0.17000000       0.67510000       0.91020000
    16  H          0.83000000       0.17510000       0.08980000
    17  H          0.19100000       0.85400000       0.85600000
    18  H          0.80900000       0.35400000       0.14400000
    19  H          0.28090000       0.82100000       0.00320000
    20  H          0.71910000       0.32100000      -0.00320000
    21  H          0.10710000       0.02450000       0.86540000
    22  H          0.89290000       0.52450000       0.13460000
    23  H          0.07830000       0.16410000       0.00580000
    24  H          0.92170000       0.66410000      -0.00580000
    25  H          0.14160000       0.15100000       0.26380000
    26  H          0.85840000       0.65100000       0.73620000
    27  H          0.47570000       0.75980000       0.56010000
    28  H          0.52430000       0.25980000       0.43990000
    29  H          0.42500000       0.68530000       0.41750000
    30  H          0.57500000       0.18530000       0.58250000
    31  H          0.39630000       0.01230000       0.32880000
    32  H          0.60370000       0.51230000       0.67120000
    33  H          0.45780000       0.98270000       0.49870000
    34  H          0.54220000       0.48270000       0.50130000
    35  H          0.51510000       0.93610000       0.25770000
    36  H          0.48490000       0.43610000       0.74230000
    37  H          0.56570000       0.02290000       0.38540000
    38  H          0.43430000       0.52290000       0.61460000
    39  H          0.53400000       0.74360000       0.31390000
    40  H          0.46600000       0.24360000       0.68610000
    41  H          0.59610000       0.70290000       0.47900000
    42  H          0.40390000       0.20290000       0.52100000
    43  Cl         0.10074800       0.39220100       0.25355130
    44  Cl         0.89925200       0.89220100       0.74644870
    45  C          0.13913000       0.57623000       0.12724000
    46  C          0.86087000       0.07623000       0.87276000
    47  C          0.15203000       0.52273000       0.26114000
    48  C          0.84797000       0.02273000       0.73886000
    49  C          0.20593000       0.57013000       0.40104000
    50  C          0.79407000       0.07013000       0.59896000
    51  C          0.24823000       0.67203000       0.40254000
    52  C          0.75177000       0.17203000       0.59746000
    53  C          0.23992000       0.72723000       0.26904000
    54  C          0.76008000       0.22723000       0.73096000
    55  C          0.18032000       0.67933000       0.12804000
    56  C          0.81968000       0.17933000       0.87196000
    57  C          0.15733000       0.73043000       0.97286000
    58  C          0.84267000       0.23043000       0.02714000
    59  C          0.21023000       0.83523000       0.96176000
    60  C          0.78977000       0.33523000       0.03824000
    61  C          0.18983000       0.93043000       0.04394000
    62  C          0.81017000       0.43043000       0.95606000
    63  C          0.13263000       0.02083000       0.97086000
    64  C          0.86737000       0.52083000       0.02914000
    65  C          0.11543000       0.10403000       0.05415000
    66  C          0.88457000       0.60403000       0.94585000
    67  C          0.15353000       0.09513000       0.20835000
    68  C          0.84647000       0.59513000       0.79165000
    69  C          0.22762000       0.92993000       0.20334000
    70  C          0.77238000       0.42993000       0.79666000
    71  C          0.29162000       0.83573000       0.28763000
    72  C          0.70838000       0.33573000       0.71237000
    73  C          0.38812000       0.84873000       0.37254000
    74  C          0.61188000       0.34873000       0.62746000
    75  C          0.45783000       0.75533000       0.45144000
    76  C          0.54217000       0.25533000       0.54856000
    77  C          0.44053000       0.95913000       0.39474000
    78  C          0.55947000       0.45913000       0.60526000
    79  C          0.53213000       0.95264000       0.36395000
    80  C          0.46787000       0.45264000       0.63605000
    81  C          0.55083000       0.75964000       0.41965000
    82  C          0.44917000       0.25964000       0.58035000
    83  N          0.27392000       0.50662000       0.77313000
    84  N          0.72608000       0.00662000       0.22687000
    85  N          0.90838000       0.37283000       0.47454000
    86  N          0.09162000       0.87283000       0.52546000
    87  H          0.40670000       0.04470000       0.02050000
    88  H          0.59330000       0.54470000       0.97950000
    89  H          0.87280000       0.36601800       0.52530000
    90  H          0.12720000       0.86601800       0.47470000
    91  H          0.26890000       0.03500000       0.56750000
    92  H          0.73110000       0.53500000       0.43250000
    93  H          0.19770000       0.20170000       0.57350000
    94  H          0.80230000       0.70170000       0.42650000
    95  H          0.42040000       0.24360000       0.13260000
    96  H          0.57960000       0.74360000       0.86740000
    97  H          0.34080000       0.17340000       0.15960000
    98  H          0.65920000       0.67340000       0.84040000
    99  H          0.32410000       0.35390000       0.21800000
   100  H          0.67590000       0.85390000       0.78200000
   101  H          0.22900000       0.31940000       0.07950000
   102  H          0.77100000       0.81940000       0.92050000
   103  H          0.40620000       0.52410000       0.19060000
   104  H          0.59380000       0.02410000       0.80940000
   105  H          0.42250000       0.66160000       0.03520000
   106  H          0.57750000       0.16160000       0.96480000
   107  H          0.34120000       0.64580000       0.78030000
   108  H          0.65880000       0.14580000       0.21970000
   109  H          0.06620000       0.17740000       0.66550000
   110  H          0.93380000       0.67740000       0.33450000
   111  H         -0.00970000       0.23170000       0.72100000
   112  H          0.00970000       0.73170000       0.27900000
   113  H          0.00630000       0.44390000       0.77300000
   114  H         -0.00630000       0.94390000       0.22700000
   115  H          0.09060000       0.50530000       0.74480000
   116  H          0.90940000       0.00530000       0.25520000
   117  H          0.01490000       0.47670000       0.48710000
   118  H          0.98510000       0.97670000       0.51290000
   119  H          0.93710000       0.52910000       0.53920000
   120  H          0.06290000       0.02910000       0.46080000
   121  H         -0.00050000       0.26830000       0.43580000
   122  H          0.00050000       0.76830000       0.56420000
   123  H          0.91320000       0.20920000       0.46050000
   124  H          0.08680000       0.70920000       0.53950000
   125  Cl         0.39664900       0.89537100       0.79382150
   126  Cl         0.60335100       0.39537100       0.20617850
   127  C          0.36363000       0.07683000       0.93154000
   128  C          0.63637000       0.57683000       0.06846000
   129  C          0.34353000       0.02403000       0.79515000
   130  C          0.65647000       0.52403000       0.20485000
   131  C          0.28113000       0.07003000       0.65894000
   132  C          0.71887000       0.57003000       0.34106000
   133  C          0.23843000       0.16943000       0.66434000
   134  C          0.76157000       0.66943000       0.33566000
   135  C          0.25322000       0.22503000       0.80063000
   136  C          0.74678000       0.72503000       0.19937000
   137  C          0.32022000       0.17833000       0.93714000
   138  C          0.67978000       0.67833000       0.06286000
   139  C          0.34983000       0.22903000       0.09394000
   140  C          0.65017000       0.72903000       0.90606000
   141  C          0.29893000       0.33403000       0.11194000
   142  C          0.70107000       0.83403000       0.88806000
   143  C          0.31273000       0.42843000       0.02264000
   144  C          0.68727000       0.92843000       0.97736000
   145  C          0.37283000       0.51944000       0.08614000
   146  C          0.62717000       0.01944000       0.91386000
   147  C          0.38303000       0.60133000      -0.00585000
   148  C          0.61697000       0.10133000       0.00585000
   149  C          0.33374000       0.59103000       0.84195000
   150  C          0.66626000       0.09103000       0.15805000
   151  C          0.26482000       0.42663000       0.86404000
   152  C          0.73518000       0.92663000       0.13596000
   153  C          0.19942000       0.33063000       0.79223000
   154  C          0.80058000       0.83063000       0.20777000
   155  C          0.09952000       0.33843000       0.72744000
   156  C          0.90048000       0.83843000       0.27256000
   157  C          0.02953000       0.24373000       0.66154000
   158  C          0.97047000       0.74373000       0.33846000
   159  C          0.04443000       0.44623000       0.71024000
   160  C          0.95557000       0.94623000       0.28976000
   161  C          0.97487000       0.46403000       0.54595000
   162  C          0.02513000       0.96403000       0.45405000
   163  C          0.96067000       0.26793000       0.49654000
   164  C          0.03933000       0.76793000       0.50346000
