data_GEKGOV
_symmetry_space_group_name_H-M    'P1'
_symmetry_Int_Tables_number       1
loop_
_symmetry_equiv_pos_site_id
_symmetry_equiv_pos_as_xyz
1 x,y,z
_cell_length_a                   5.20862
_cell_length_b                   15.04336
_cell_length_c                   16.11447
_cell_angle_alpha                66.2252
_cell_angle_beta                 89.1452
_cell_angle_gamma                80.6472
loop_
_atom_site_label
_atom_site_type_symbol
_atom_site_fract_x
_atom_site_fract_y
_atom_site_fract_z
     1  C          0.11552000       0.18251800       0.82582800
     2  C          0.88448000       0.81748200       0.17417200
     3  C          0.90748000       0.23868900       0.76395800
     4  C          0.09252000       0.76131100       0.23604200
     5  H          0.79530300       0.20720000       0.74310000
     6  H          0.20469700       0.79280000       0.25690000
     7  C          0.86348000       0.34142900       0.73247800
     8  C          0.13652000       0.65857100       0.26752200
     9  C          0.02692000       0.38723900       0.76488800
    10  C          0.97308000       0.61276100       0.23511200
    11  H         -0.00262800       0.45695700       0.74428300
    12  H          0.00262800       0.54304300       0.25571700
    13  C          0.23232000       0.32999900       0.82737900
    14  C          0.76768000       0.67000100       0.17262100
    15  H          0.34227700       0.36113500       0.84946800
    16  H          0.65772300       0.63886500       0.15053200
    17  C          0.27912000       0.22793900       0.85797800
    18  C          0.72088000       0.77206100       0.14202200
    19  H          0.42083400       0.18950200       0.90028800
    20  H          0.57916600       0.81049800       0.09971200
    21  C          0.38462000       0.91157200       0.90044800
    22  C          0.61538000       0.08842800       0.09955200
    23  C          0.19842000       0.86479100       0.95713800
    24  C          0.80158000       0.13520900       0.04286200
    25  H          0.05830000       0.90272700       0.97316900
    26  H          0.94170000       0.09727300       0.02683100
    27  C          0.21662000       0.76297100       0.99030900
    28  C          0.78338000       0.23702900       0.00969100
    29  H          0.09265400       0.73041900       0.02991000
    30  H          0.90734600       0.26958100       0.97009000
    31  C          0.41982000       0.71057100       0.96405900
    32  C          0.58018000       0.28942900       0.03594100
    33  C          0.60432000       0.75423100       0.90663900
    34  C          0.39568000       0.24576900       0.09336100
    35  H          0.73963900       0.71597200       0.88903800
    36  H          0.26036100       0.28402800       0.11096200
    37  C          0.58692000       0.85536100       0.87531900
    38  C          0.41308000       0.14463900       0.12468100
    39  H          0.71330700       0.88699800       0.83638800
    40  H          0.28669300       0.11300200       0.16361200
    41  C          0.38792000       0.01937900       0.86802800
    42  C          0.61208000       0.98062100       0.13197200
    43  C          0.65498000       0.39980900       0.66581900
    44  C          0.34502000       0.60019100       0.33418100
    45  C          0.47997000       0.44832100       0.61162900
    46  C          0.52003000       0.55167900       0.38837100
    47  H          0.34044800       0.48699100       0.56842200
    48  H          0.65955200       0.51300900       0.43157800
    49  F          0.43981150       0.61119500      -0.00279400
    50  F          0.56018850       0.38880500       0.00279400
    51  O          0.59446160       0.05166600       0.85242700
    52  O          0.40553840       0.94833400       0.14757300
    53  N          0.15150180       0.07815700       0.85652700
    54  N          0.84849820       0.92184300       0.14347300
    55  H          0.01227200       0.04985600       0.86884200
    56  H         -0.01227200       0.95014400       0.13115800
    57  C          0.62892000       0.18699800       0.32130800
    58  C          0.37108000       0.81300200       0.67869200
    59  C          0.78862000       0.24427900       0.26035800
    60  C          0.21138000       0.75572100       0.73964200
    61  H          0.93055400       0.21400700       0.23778600
    62  H          0.06944600       0.78599300       0.76221400
    63  C          0.73992000       0.34692900       0.23215800
    64  C          0.26008000       0.65307100       0.76784200
    65  C          0.53262000       0.39079900       0.26707900
    66  C          0.46738000       0.60920100       0.73292100
    67  H          0.50101300       0.46013900       0.24936400
    68  H          0.49898700       0.53986100       0.75063600
    69  C          0.37422000       0.33253900       0.32750900
    70  C          0.62578000       0.66746100       0.67249100
    71  H          0.23306100       0.36241400       0.35072300
    72  H          0.76693900       0.63758600       0.64927700
    73  C          0.41932000       0.23096900       0.35453800
    74  C          0.58068000       0.76903100       0.64546200
    75  H          0.30832000       0.19167300       0.39535000
    76  H          0.69168000       0.80832700       0.60465000
    77  C          0.89592000       0.91464200       0.40140800
    78  C          0.10408000       0.08535800       0.59859200
    79  C          0.09752000       0.84924100       0.46233800
    80  C          0.90248000       0.15075900       0.53766200
    81  H          0.22929900       0.87422400       0.48221800
    82  H          0.77070100       0.12577600       0.51778200
    83  C          0.10732000       0.74821100       0.49405900
    84  C          0.89268000       0.25178900       0.50594100
    85  H          0.24230000       0.70350400       0.53634400
    86  H          0.75770000       0.29649600       0.46365600
    87  C          0.91502000       0.71437100       0.46243900
    88  C          0.08498000       0.28562900       0.53756100
    89  C          0.71382000       0.77654100       0.40144900
    90  C          0.28618000       0.22345900       0.59855100
    91  H          0.58603200       0.75084400       0.38045800
    92  H          0.41396800       0.24915600       0.61954200
    93  C          0.70332000       0.87769100       0.37160800
    94  C          0.29668000       0.12230900       0.62839200
    95  H          0.56457100       0.92193900       0.33076300
    96  H          0.43542900       0.07806100       0.66923700
    97  C          0.90282000       0.02236900       0.36957800
    98  C          0.09718000       0.97763100       0.63042200
    99  C          0.89762000       0.40808900       0.16673800
   100  C          0.10238000       0.59191100       0.83326200
   101  C          0.02713000       0.45981900       0.11366900
   102  C          0.97287000       0.54018100       0.88633100
   103  H          0.13080000       0.50121700       0.07118800
   104  H          0.86920000       0.49878300       0.92881200
   105  F          0.92442150       0.61556500       0.49330600
   106  F          0.07557850       0.38443500       0.50669400
   107  O          0.11117160       0.05266700       0.36311700
   108  O          0.88882840       0.94733300       0.63688300
   109  N          0.66694180       0.08285700       0.35016700
   110  N          0.33305820       0.91714300       0.64983300
   111  H          0.52713700       0.05538900       0.35591200
   112  H          0.47286300       0.94461100       0.64408800
