data_GEKGOV02
_symmetry_space_group_name_H-M    'P1'
_symmetry_Int_Tables_number       1
loop_
_symmetry_equiv_pos_site_id
_symmetry_equiv_pos_as_xyz
1 x,y,z
_cell_length_a                   6.51356
_cell_length_b                   25.2012
_cell_length_c                   7.10145
_cell_angle_alpha                90.0
_cell_angle_beta                 93.6763
_cell_angle_gamma                90.0
loop_
_atom_site_label
_atom_site_type_symbol
_atom_site_fract_x
_atom_site_fract_y
_atom_site_fract_z
     1  C          0.37723000       0.91005800       0.39473000
     2  C          0.62277000       0.41005800       0.60527000
     3  C          0.50963000       0.94689800       0.31923000
     4  C          0.49037000       0.44689800       0.68077000
     5  H          0.64614200       0.93669000       0.29598800
     6  H          0.35385800       0.43669000       0.70401200
     7  C          0.44373000      -0.00158200       0.27773000
     8  C          0.55627000       0.49841800       0.72227000
     9  C          0.24133000       0.01308800       0.31013000
    10  C          0.75867000       0.51308800       0.68987000
    11  H          0.19457600       0.04813800       0.28314300
    12  H          0.80542400       0.54813800       0.71685700
    13  C          0.11053000       0.97603900       0.38183000
    14  C          0.88947000       0.47603900       0.61817000
    15  H          0.97301300       0.98594700       0.40242200
    16  H          0.02698700       0.48594700       0.59757800
    17  C          0.17553000       0.92454800       0.42433000
    18  C          0.82447000       0.42454800       0.57567000
    19  H          0.08333300       0.89957900       0.47295800
    20  H          0.91666700       0.39957900       0.52704200
    21  C          0.55083000       0.78011800       0.61513000
    22  C          0.44917000       0.28011800       0.38487000
    23  C          0.47283000       0.73468900       0.69873000
    24  C          0.52717000       0.23468900       0.30127000
    25  H          0.33545600       0.73470400       0.73645200
    26  H          0.66454400       0.23470400       0.26354800
    27  C          0.59264000       0.68984900       0.72713000
    28  C          0.40736000       0.18984900       0.27287000
    29  H          0.53899700       0.65880100       0.78183500
    30  H          0.46100300       0.15880100       0.21816500
    31  C          0.79204000       0.69142900       0.67383000
    32  C          0.20796000       0.19142900       0.32617000
    33  C          0.87703000       0.73555900       0.59553000
    34  C          0.12297000       0.23555900       0.40447000
    35  H          0.01578500       0.73541300       0.56175200
    36  H         -0.01578500       0.23541300       0.43824800
    37  C          0.75473000       0.78026800       0.56723000
    38  C          0.24527000       0.28026800       0.43277000
    39  H          0.81070500       0.81130700       0.51455900
    40  H          0.18929500       0.31130700       0.48544100
    41  C          0.41133000       0.82666800       0.58083000
    42  C          0.58867000       0.32666800       0.41917000
    43  C          0.58553000       0.03678800       0.20793000
    44  C          0.41447000       0.53678800       0.79207000
    45  C          0.70374000       0.06783900       0.15353000
    46  C          0.29626000       0.56783900       0.84647000
    47  H          0.79884900       0.09283800       0.10972600
    48  H          0.20115100       0.59283800       0.89027400
    49  F          0.91292000       0.64780600       0.70332000
    50  F          0.08708000       0.14780600       0.29668000
    51  O          0.26272000       0.83463600       0.67602000
    52  O          0.73728000       0.33463600       0.32398000
    53  N          0.46153000       0.85937600       0.43842000
    54  N          0.53847000       0.35937600       0.56158000
    55  H          0.55643500       0.84782300       0.36578400
    56  H          0.44356500       0.34782300       0.63421600
    57  C          0.09413000       0.76584800       0.08983000
    58  C          0.90587000       0.26584800       0.91017000
    59  C          0.94853000       0.72646800       0.11023000
    60  C          0.05147000       0.22646800       0.88977000
    61  H          0.80801700       0.73288400       0.07292100
    62  H          0.19198300       0.23288400       0.92707900
    63  C          0.00933000       0.67721800       0.18613000
    64  C         -0.00933000       0.17721800       0.81387000
    65  C          0.21663000       0.66822800       0.24263000
    66  C          0.78337000       0.16822800       0.75737000
    67  H          0.25821800       0.63510400       0.29635100
    68  H          0.74178200       0.13510400       0.70364900
    69  C          0.36053000       0.70775900       0.21983000
    70  C          0.63947000       0.20775900       0.78017000
    71  H          0.50112200       0.70154000       0.25708300
    72  H          0.49887800       0.20154000       0.74291700
    73  C          0.30043000       0.75659800       0.14263000
    74  C          0.69957000       0.25659800       0.85737000
    75  H          0.39993900       0.78346700       0.12599900
    76  H          0.60006100       0.28346700       0.87400100
    77  C          0.83763000       0.89522800       0.94597000
    78  C          0.16237000       0.39522800       0.05403000
    79  C         -0.00177000       0.93000800       0.91577000
    80  C          0.00177000       0.43000800       0.08423000
    81  H          0.13570200       0.92050600       0.95426200
    82  H          0.86429800       0.42050600       0.04573800
    83  C          0.95703000       0.97871800       0.82907000
    84  C          0.04297000       0.47871800       0.17093000
    85  H          0.06461600       0.00325200       0.81064700
    86  H          0.93538400       0.50325200       0.18935300
    87  C          0.75623000       0.99048800       0.77057000
    88  C          0.24377000       0.49048800       0.22943000
    89  C          0.59403000       0.95711800       0.79837000
    90  C          0.40597000       0.45711800       0.20163000
    91  H          0.45744200       0.96648400       0.75613200
    92  H          0.54255800       0.46648400       0.24386800
    93  C          0.63573000       0.90937800       0.88977000
    94  C          0.36427000       0.40937800       0.11023000
    95  H          0.52595600       0.88607300       0.91454900
    96  H          0.47404400       0.38607300       0.08545100
    97  C          0.86953000       0.84374800       0.04763000
    98  C          0.13047000       0.34374800       0.95237000
    99  C          0.85634000       0.63575900       0.20494000
   100  C          0.14366000       0.13575900       0.79506000
   101  C          0.73094000       0.60388110       0.22025000
   102  C          0.26906000       0.10388110       0.77975000
   103  H          0.62782600       0.57767900       0.23268000
   104  H          0.37217400       0.07767900       0.76732000
   105  F          0.71552000       0.03759500       0.68268000
   106  F          0.28448000       0.53759500       0.31732000
   107  O          0.74602000       0.82840600       0.15992000
   108  O          0.25398000       0.32840600       0.84008000
   109  N          0.03863000       0.81578600       0.00762000
   110  N          0.96137000       0.31578600      -0.00762000
   111  H          0.11949100       0.82934100       0.92544900
   112  H          0.88050900       0.32934100       0.07455100
