data_GEKGOV01
_symmetry_space_group_name_H-M    'P1'
_symmetry_Int_Tables_number       1
loop_
_symmetry_equiv_pos_site_id
_symmetry_equiv_pos_as_xyz
1 x,y,z
_cell_length_a                   5.849512
_cell_length_b                   25.7665
_cell_length_c                   7.726916
_cell_angle_alpha                90.0
_cell_angle_beta                 90.5216
_cell_angle_gamma                90.0
loop_
_atom_site_label
_atom_site_type_symbol
_atom_site_fract_x
_atom_site_fract_y
_atom_site_fract_z
     1  C          0.56653000       0.31133800       0.58543000
     2  C          0.93347000       0.81133800       0.91457000
     3  C          0.43347000       0.68866200       0.41457000
     4  C          0.06653000       0.18866200       0.08543000
     5  C          0.69654000       0.35342800       0.63693000
     6  C          0.80346000       0.85342800       0.86307000
     7  C          0.30346000       0.64657200       0.36307000
     8  C          0.19654000       0.14657200       0.13693000
     9  H          0.84304100       0.34801400       0.68776500
    10  H          0.65695900       0.84801400       0.81223500
    11  H          0.15695900       0.65198600       0.31223500
    12  H          0.34304100       0.15198600       0.18776500
    13  C          0.61434000       0.40364800       0.61503000
    14  C          0.88566000       0.90364800       0.88497000
    15  C          0.38566000       0.59635200       0.38497000
    16  C          0.11434000       0.09635200       0.11503000
    17  C          0.39864000       0.41140900       0.54223000
    18  C          0.10136000       0.91140900       0.95777000
    19  C          0.60136000       0.58859100       0.45777000
    20  C          0.89864000       0.08859100       0.04223000
    21  H          0.34160100       0.44554200       0.52452900
    22  H          0.15839900       0.94554200       0.97547100
    23  H          0.65839900       0.55445800       0.47547100
    24  H          0.84160100       0.05445800       0.02452900
    25  C          0.26844000       0.36883900       0.49593000
    26  C          0.23156000       0.86883900       0.00407000
    27  C          0.73156000       0.63116100       0.50407000
    28  C          0.76844000       0.13116100      -0.00407000
    29  H          0.11983600       0.37408500       0.44830000
    30  H          0.38016400       0.87408500       0.05170000
    31  H          0.88016400       0.62591500       0.55170000
    32  H          0.61983600       0.12591500       0.94830000
    33  C          0.34854000       0.31888900       0.51703000
    34  C          0.15146000       0.81888900      -0.01703000
    35  C          0.65146000       0.68111100       0.48297000
    36  C          0.84854000       0.18111100       0.01703000
    37  H          0.25599500       0.29004500       0.48519800
    38  H          0.24400500       0.79004500       0.01480200
    39  H          0.74400500       0.70995500       0.51480200
    40  H          0.75599500       0.20995500      -0.01480200
    41  C          0.80234000       0.17527800       0.53553000
    42  C          0.69766000       0.67527800       0.96447000
    43  C          0.19766000       0.82472200       0.46447000
    44  C          0.30234000       0.32472200       0.03553000
    45  C          0.72924000       0.12594800       0.48433000
    46  C          0.77076000       0.62594800       0.01567000
    47  C          0.27076000       0.87405200       0.51567000
    48  C          0.22924000       0.37405200      -0.01567000
    49  H          0.58577800       0.12197600       0.42710900
    50  H          0.91422200       0.62197600       0.07289100
    51  H          0.41422200       0.87802400       0.57289100
    52  H          0.08577800       0.37802400       0.92710900
    53  C          0.86424000       0.08279900       0.51623000
    54  C          0.63576000       0.58279900      -0.01623000
    55  C          0.13576000       0.91720100       0.48377000
    56  C          0.36424000       0.41720100       0.01623000
    57  H          0.81528800       0.04902000       0.48324200
    58  H          0.68471200       0.54902000       0.01675800
    59  H          0.18471200       0.95098000       0.51675800
    60  H          0.31528800       0.45098000      -0.01675800
    61  C          0.07154000       0.09053900       0.59713000
    62  C          0.42846000       0.59053900       0.90287000
    63  C          0.92846000       0.90946100       0.40287000
    64  C          0.57154000       0.40946100       0.09713000
    65  C          0.15194000       0.13817900       0.64433000
    66  C          0.34806000       0.63817900       0.85567000
    67  C          0.84806000       0.86182100       0.35567000
    68  C          0.65194000       0.36182100       0.14433000
    69  H          0.29800300       0.14181900       0.69757500
    70  H          0.20199700       0.64181900       0.80242500
    71  H          0.70199700       0.85818100       0.30242500
    72  H          0.79800300       0.35818100       0.19757500
    73  C          0.01584000       0.18102800       0.61293000
    74  C          0.48416000       0.68102800       0.88707000
    75  C         -0.01584000       0.81897200       0.38707000
    76  C          0.51584000       0.31897200       0.11293000
    77  H          0.06864900       0.21460700       0.64434800
    78  H          0.43135100       0.71460700       0.85565200
    79  H          0.93135100       0.78539300       0.35565200
    80  H          0.56864900       0.28539300       0.14434800
    81  C          0.64624000       0.22011800       0.50053000
    82  C          0.85376000       0.72011800      -0.00053000
    83  C          0.35376000       0.77988200       0.49947000
    84  C          0.14624000       0.27988200       0.00053000
    85  C          0.75694000       0.44704900       0.66733000
    86  C          0.74306000       0.94704900       0.83267000
    87  C          0.24306000       0.55295100       0.33267000
    88  C          0.25694000       0.05295100       0.16733000
    89  C          0.87564000       0.48122100       0.70753000
    90  C          0.62436000       0.98122100       0.79247000
    91  C          0.12436000       0.51877900       0.29247000
    92  C          0.37564000       0.01877900       0.20753000
    93  H          0.97265900       0.50916900       0.74033600
    94  H          0.52734100       0.00916900       0.75966400
    95  H          0.02734100       0.49083100       0.25966400
    96  H          0.47265900       0.99083100       0.24033600
    97  F          0.20362000       0.04813500       0.63162000
    98  F          0.29638000       0.54813500       0.86838000
    99  F          0.79638000       0.95186500       0.36838000
   100  F          0.70362000       0.45186500       0.13162000
   101  O          0.50463000       0.21872600       0.38172000
   102  O         -0.00463000       0.71872600       0.11828000
   103  O          0.49537000       0.78127400       0.61828000
   104  O          0.00463000       0.28127400       0.88172000
   105  N          0.66813000       0.26143600       0.60792000
   106  N          0.83187000       0.76143600       0.89208000
   107  N          0.33187000       0.73856400       0.39208000
   108  N          0.16813000       0.23856400       0.10792000
   109  H          0.75370100       0.25703500       0.70095200
   110  H          0.74629900       0.75703500       0.79904800
   111  H          0.24629900       0.74296500       0.29904800
   112  H          0.25370100       0.24296500       0.20095200
