data_GEYDEX01
_symmetry_space_group_name_H-M    'P1'
_symmetry_Int_Tables_number       1
loop_
_symmetry_equiv_pos_site_id
_symmetry_equiv_pos_as_xyz
1 x,y,z
_cell_length_a                   8.2783
_cell_length_b                   13.5274
_cell_length_c                   12.5034
_cell_angle_alpha                90.0
_cell_angle_beta                 90.0
_cell_angle_gamma                90.0
loop_
_atom_site_label
_atom_site_type_symbol
_atom_site_fract_x
_atom_site_fract_y
_atom_site_fract_z
     1  Br         0.20948700       0.89079400       0.71538400
     2  Br         0.79051300       0.10920600       0.21538400
     3  Br         0.70948700       0.60920600       0.71538400
     4  Br         0.29051300       0.39079400       0.21538400
     5  Br         0.45165700       0.33842300       0.56883500
     6  Br         0.54834300       0.66157700       0.06883500
     7  Br         0.95165700       0.16157700       0.56883500
     8  Br         0.04834300       0.83842300       0.06883500
     9  O          0.60783000       0.70502000       0.43632000
    10  O          0.39217000       0.29498000       0.93632000
    11  O          0.10783000       0.79498000       0.43632000
    12  O          0.89217000       0.20502000       0.93632000
    13  C          0.56585000       0.39663000       0.45154000
    14  C          0.43415000       0.60337000       0.95154000
    15  C          0.06585000       0.10337000       0.45154000
    16  C          0.93415000       0.89663000       0.95154000
    17  C          0.45495000       0.85113000       0.56184000
    18  C          0.54505000       0.14887000       0.06184000
    19  C          0.95495000       0.64887000       0.56184000
    20  C          0.04505000       0.35113000       0.06184000
    21  H          0.43006400       0.78503900       0.57412400
    22  H          0.56993600       0.21496100       0.07412400
    23  H          0.93006400       0.71496100       0.57412400
    24  H          0.06993600       0.28503900       0.07412400
    25  C          0.41246000       0.02363000       0.60244000
    26  C          0.58754000       0.97637000       0.10244000
    27  C          0.91246000       0.47637000       0.60244000
    28  C          0.08754000       0.52363000       0.10244000
    29  H          0.35877400       0.07256500       0.64074900
    30  H          0.64122600       0.92743500       0.14074900
    31  H          0.85877400       0.42743500       0.64074900
    32  H          0.14122600       0.57256500       0.14074900
    33  C          0.77716000       0.71043000       0.29844000
    34  C          0.22284000       0.28957000       0.79844000
    35  C          0.27716000       0.78957000       0.29844000
    36  C          0.72284000       0.21043000       0.79844000
    37  H          0.84275300       0.69159400       0.24154500
    38  H          0.15724700       0.30840600       0.74154500
    39  H          0.34275300       0.80840600       0.24154500
    40  H          0.65724700       0.19159400       0.74154500
    41  C          0.72257000       0.38144000       0.29545000
    42  C          0.27743000       0.61856000       0.79545000
    43  C          0.22257000       0.11856000       0.29545000
    44  C          0.77743000       0.88144000       0.79545000
    45  H          0.77141400       0.34226900       0.24354100
    46  H          0.22858600       0.65773100       0.74354100
    47  H          0.27141400       0.15773100       0.24354100
    48  H          0.72858600       0.84226900       0.74354100
    49  C          0.63697000       0.33664000       0.37714000
    50  C          0.36303000       0.66336000       0.87714000
    51  C          0.13697000       0.16336000       0.37714000
    52  C          0.86303000       0.83664000       0.87714000
    53  H          0.62807300       0.26820000       0.38126700
    54  H          0.37192700       0.73180000       0.88126700
    55  H          0.12807300       0.23180000       0.38126700
    56  H          0.87192700       0.76820000       0.88126700
    57  C          0.66485000       0.54243000       0.36554000
    58  C          0.33515000       0.45757000       0.86554000
    59  C          0.16485000       0.95757000       0.36554000
    60  C          0.83515000       0.04243000       0.86554000
    61  C          0.57545000       0.49923000       0.44753000
    62  C          0.42455000       0.50077000       0.94753000
    63  C          0.07545000       0.00077000       0.44753000
    64  C          0.92455000      -0.00077000       0.94753000
    65  H          0.52342600       0.53800100       0.49831900
    66  H          0.47657400       0.46199900      -0.00168100
    67  H          0.02342600       0.96199900       0.49831900
    68  H          0.97657400       0.03800100      -0.00168100
    69  C          0.37606000       0.92473000       0.61844000
    70  C          0.62394000       0.07527000       0.11844000
    71  C          0.87606000       0.57527000       0.61844000
    72  C          0.12394000       0.42473000       0.11844000
    73  C          0.75286000       0.80694000       0.33524000
    74  C          0.24714000       0.19306000       0.83524000
    75  C          0.25286000       0.69306000       0.33524000
    76  C          0.74714000       0.30694000       0.83524000
    77  H          0.79953700       0.86389000       0.30726900
    78  H          0.20046300       0.13611000       0.80726900
    79  H          0.29953700       0.63611000       0.30726900
    80  H          0.70046300       0.36389000       0.80726900
    81  C          0.57145000       0.87643000       0.48644000
    82  C          0.42855000       0.12357000       0.98644000
    83  C          0.07145000       0.62357000       0.48644000
    84  C          0.92855000       0.37643000       0.98644000
    85  C          0.68765000       0.64913000       0.36054000
    86  C          0.31235000       0.35087000       0.86054000
    87  C          0.18765000       0.85087000       0.36054000
    88  C          0.81235000       0.14913000       0.86054000
    89  C          0.73716000       0.48264000       0.28924000
    90  C          0.26284000       0.51736000       0.78924000
    91  C          0.23716000       0.01736000       0.28924000
    92  C          0.76284000       0.98264000       0.78924000
    93  H          0.79559600       0.51098600       0.23355500
    94  H          0.20440400       0.48901400       0.73355500
    95  H          0.29559600       0.98901400       0.23355500
    96  H          0.70440400       0.01098600       0.73355500
    97  C          0.53016000       0.04824000       0.52844000
    98  C          0.46984000       0.95176000       0.02844000
    99  C          0.03016000       0.45176000       0.52844000
   100  C          0.96984000       0.54824000       0.02844000
   101  H          0.55586500       0.11428600       0.51699800
   102  H          0.44413500       0.88571400       0.01699800
   103  H          0.05586500       0.38571400       0.51699800
   104  H          0.94413500       0.61428600       0.01699800
   105  C          0.60836000       0.97673000       0.47224000
   106  C          0.39164000       0.02327000       0.97224000
   107  C          0.10836000       0.52327000       0.47224000
   108  C          0.89164000       0.47673000       0.97224000
   109  H          0.68784500      -0.00530400       0.42335900
   110  H          0.31215500       0.00530400       0.92335900
   111  H          0.18784500       0.50530400       0.42335900
   112  H          0.81215500       0.49469600       0.92335900
   113  C          0.64845000       0.80233000       0.41933000
   114  C          0.35155000       0.19767000       0.91933000
   115  C          0.14845000       0.69767000       0.41933000
   116  C          0.85155000       0.30233000       0.91933000
