data_GEYDEX
_symmetry_space_group_name_H-M    'P1'
_symmetry_Int_Tables_number       1
loop_
_symmetry_equiv_pos_site_id
_symmetry_equiv_pos_as_xyz
1 x,y,z
_cell_length_a                   6.31293
_cell_length_b                   30.172012
_cell_length_c                   7.29374
_cell_angle_alpha                90.0
_cell_angle_beta                 90.0
_cell_angle_gamma                90.0
loop_
_atom_site_label
_atom_site_type_symbol
_atom_site_fract_x
_atom_site_fract_y
_atom_site_fract_z
     1  Br         0.80848100       0.46020200       0.58043800
     2  Br         0.69151900       0.53979800       0.08043800
     3  Br         0.19151900       0.96020200       0.41956200
     4  Br         0.30848100       0.03979800       0.91956200
     5  Br         0.19151900       0.53979800       0.41956200
     6  Br         0.30848100       0.46020200       0.91956200
     7  Br         0.80848100       0.03979800       0.58043800
     8  Br         0.69151900       0.96020200       0.08043800
     9  O          0.60476000       0.25000000       0.49286000
    10  O          0.89524000       0.75000000      -0.00714000
    11  O          0.39524000       0.75000000       0.50714000
    12  O          0.10476000       0.25000000       0.00714000
    13  C          0.62747000       0.32987140       0.50496000
    14  C          0.87253000       0.67012860       0.00496000
    15  C          0.37253000       0.82987140       0.49504000
    16  C          0.12747000       0.17012860      -0.00496000
    17  C          0.37253000       0.67012860       0.49504000
    18  C          0.12747000       0.32987140      -0.00496000
    19  C          0.62747000       0.17012860       0.50496000
    20  C          0.87253000       0.82987140       0.00496000
    21  C          0.73917000       0.36773150       0.55496000
    22  C          0.76083000       0.63226850       0.05496000
    23  C          0.26083000       0.86773150       0.44504000
    24  C          0.23917000       0.13226850       0.94504000
    25  C          0.26083000       0.63226850       0.44504000
    26  C          0.23917000       0.36773150       0.94504000
    27  C          0.73917000       0.13226850       0.55496000
    28  C          0.76083000       0.86773150       0.05496000
    29  H          0.87363400       0.36546200       0.60593200
    30  H          0.62636600       0.63453800       0.10593200
    31  H          0.12636600       0.86546200       0.39406800
    32  H          0.37363400       0.13453800       0.89406800
    33  H          0.12636600       0.63453800       0.39406800
    34  H          0.37363400       0.36546200       0.89406800
    35  H          0.87363400       0.13453800       0.60593200
    36  H          0.62636600       0.86546200       0.10593200
    37  C          0.72627000       0.28668140       0.52736000
    38  C          0.77373000       0.71331860       0.02736000
    39  C          0.27373000       0.78668140       0.47264000
    40  C          0.22627000       0.21331860       0.97264000
    41  C          0.27373000       0.71331860       0.47264000
    42  C          0.22627000       0.28668140       0.97264000
    43  C          0.72627000       0.21331860       0.52736000
    44  C          0.77373000       0.78668140       0.02736000
    45  C          0.42347000       0.33399150       0.43396000
    46  C          0.07653000       0.66600850       0.93396000
    47  C          0.57653000       0.83399150       0.56604000
    48  C          0.92347000       0.16600850       0.06604000
    49  C          0.57653000       0.66600850       0.56604000
    50  C          0.92347000       0.33399150       0.06604000
    51  C          0.42347000       0.16600850       0.43396000
    52  C          0.07653000       0.83399150       0.93396000
    53  H          0.34688000       0.30890100       0.40067600
    54  H          0.15312000       0.69109900       0.90067600
    55  H          0.65312000       0.80890100       0.59932400
    56  H          0.84688000       0.19109900       0.09932400
    57  H          0.65312000       0.69109900       0.59932400
    58  H          0.84688000       0.30890100       0.09932400
    59  H          0.34688000       0.19109900       0.40067600
    60  H          0.15312000       0.80890100       0.90067600
    61  C          0.64747000       0.40860150       0.52766000
    62  C          0.85253000       0.59139850       0.02766000
    63  C          0.35253000       0.90860150       0.47234000
    64  C          0.14747000       0.09139850       0.97234000
    65  C          0.35253000       0.59139850       0.47234000
    66  C          0.14747000       0.40860150       0.97234000
    67  C          0.64747000       0.09139850       0.52766000
    68  C          0.85253000       0.90860150       0.02766000
    69  C          0.44368000       0.41306150       0.45856000
    70  C          0.05632000       0.58693850       0.95856000
    71  C          0.55632000       0.91306150       0.54144000
    72  C          0.94368000       0.08693850       0.04144000
    73  C          0.55632000       0.58693850       0.54144000
    74  C          0.94368000       0.41306150       0.04144000
    75  C          0.44368000       0.08693850       0.45856000
    76  C          0.05632000       0.91306150       0.95856000
    77  H          0.38266600       0.44089500       0.44367300
    78  H          0.11733400       0.55910500       0.94367300
    79  H          0.61733400       0.94089500       0.55632700
    80  H          0.88266600       0.05910500       0.05632700
    81  H          0.61733400       0.55910500       0.55632700
    82  H          0.88266600       0.44089500       0.05632700
    83  H          0.38266600       0.05910500       0.44367300
    84  H          0.11733400       0.94089500       0.94367300
    85  C          0.92167000       0.27341150       0.58126000
    86  C          0.57833000       0.72658850       0.08126000
    87  C          0.07833000       0.77341150       0.41874000
    88  C          0.42167000       0.22658850       0.91874000
    89  C          0.07833000       0.72658850       0.41874000
    90  C          0.42167000       0.27341150       0.91874000
    91  C          0.92167000       0.22658850       0.58126000
    92  C          0.57833000       0.77341150       0.08126000
    93  H          0.03451700       0.29170800       0.61237400
    94  H          0.46548300       0.70829200       0.11237400
    95  H          0.96548300       0.79170800       0.38762600
    96  H          0.53451700       0.20829200       0.88762600
    97  H          0.96548300       0.70829200       0.38762600
    98  H          0.53451700       0.29170800       0.88762600
    99  H          0.03451700       0.20829200       0.61237400
   100  H          0.46548300       0.79170800       0.11237400
   101  C          0.33567000       0.37574160       0.41346000
   102  C          0.16433000       0.62425840       0.91346000
   103  C          0.66433000       0.87574160       0.58654000
   104  C          0.83567000       0.12425840       0.08654000
   105  C          0.66433000       0.62425840       0.58654000
   106  C          0.83567000       0.37574160       0.08654000
   107  C          0.33567000       0.12425840       0.41346000
   108  C          0.16433000       0.87574160       0.91346000
   109  H          0.19874900       0.37827900       0.36729300
   110  H          0.30125100       0.62172100       0.86729300
   111  H          0.80125100       0.87827900       0.63270700
   112  H          0.69874900       0.12172100       0.13270700
   113  H          0.80125100       0.62172100       0.63270700
   114  H          0.69874900       0.37827900       0.13270700
   115  H          0.19874900       0.12172100       0.36729300
   116  H          0.30125100       0.87827900       0.86729300
