data_GEYDEX02
_symmetry_space_group_name_H-M    'P1'
_symmetry_Int_Tables_number       1
loop_
_symmetry_equiv_pos_site_id
_symmetry_equiv_pos_as_xyz
1 x,y,z
_cell_length_a                   4.12646
_cell_length_b                   10.789116
_cell_length_c                   31.1944
_cell_angle_alpha                90.0
_cell_angle_beta                 90.0
_cell_angle_gamma                90.0
loop_
_atom_site_label
_atom_site_type_symbol
_atom_site_fract_x
_atom_site_fract_y
_atom_site_fract_z
     1  Br         0.59665000       0.57983180       0.64926500
     2  Br         0.90335000       0.42016820       0.14926500
     3  Br         0.40335000       0.07983180       0.85073500
     4  Br         0.09665000       0.92016820       0.35073500
     5  Br         0.46685000       0.65222000       0.24487600
     6  Br         0.03315000       0.34778000       0.74487600
     7  Br         0.53315000       0.15222000       0.25512400
     8  Br        -0.03315000       0.84778000       0.75512400
     9  O          0.38120000       0.48588000       0.44493000
    10  O          0.11880000       0.51412000       0.94493000
    11  O          0.61880000       0.98588000       0.05507000
    12  O          0.88120000       0.01412000       0.55507000
    13  C          0.51230000       0.54571100       0.48034000
    14  C         -0.01230000       0.45428900       0.98034000
    15  C          0.48770000       0.04571100       0.01966000
    16  C          0.01230000       0.95428900       0.51966000
    17  C          0.46130000       0.49521400       0.59784000
    18  C          0.03870000       0.50478600       0.09784000
    19  C          0.53870000      -0.00478600       0.90216000
    20  C          0.96130000       0.00478600       0.40216000
    21  C          0.18830000       0.40611200       0.36254000
    22  C          0.31170000       0.59388800       0.86254000
    23  C          0.81170000       0.90611200       0.13746000
    24  C          0.68830000       0.09388800       0.63746000
    25  H          0.13010700       0.35804000       0.38607000
    26  H          0.36989300       0.64196000       0.88607000
    27  H          0.86989300       0.85804000       0.11393000
    28  H          0.63010700       0.14196000       0.61393000
    29  C          0.53530000       0.54671300       0.55874000
    30  C          0.96470000       0.45328700       0.05874000
    31  C          0.46470000       0.04671300       0.94126000
    32  C          0.03530000       0.95328700       0.44126000
    33  H          0.65220300       0.62009800       0.55733900
    34  H          0.84779700       0.37990200       0.05733900
    35  H          0.34779700       0.12009800       0.94266100
    36  H          0.15220300       0.87990200       0.44266100
    37  C          0.17330000       0.44471300       0.28655000
    38  C          0.32670000       0.55528700       0.78655000
    39  C          0.82670000       0.94471300       0.21345000
    40  C          0.67330000       0.05528700       0.71345000
    41  H          0.10245100       0.42149600       0.25932600
    42  H          0.39754900       0.57850400       0.75932600
    43  H          0.89754900       0.92149600       0.24067400
    44  H          0.60245100       0.07850400       0.74067400
    45  C          0.43530000       0.48951100       0.52154000
    46  C          0.06470000       0.51048900       0.02154000
    47  C          0.56470000      -0.01048900       0.97846000
    48  C          0.93530000       0.01048900       0.47846000
    49  C          0.47430000       0.55701100       0.40994000
    50  C          0.02570000       0.44298900       0.90994000
    51  C          0.52570000       0.05701100       0.09006000
    52  C         -0.02570000       0.94298900       0.59006000
    53  C          0.25530000       0.38011500       0.52485000
    54  C          0.24470000       0.61988500       0.02485000
    55  C          0.74470000       0.88011500       0.97515000
    56  C          0.75530000       0.11988500       0.47515000
    57  H          0.18401400       0.34056800       0.50001300
    58  H          0.31598600       0.65943200       0.00001300
    59  H          0.81598600       0.84056800      -0.00001300
    60  H          0.68401400       0.15943200       0.49998700
    61  C          0.67730000       0.64021300       0.46794000
    62  C          0.82270000       0.35978700       0.96794000
    63  C          0.32270000       0.14021300       0.03206000
    64  C          0.17730000       0.85978700       0.53206000
    65  H          0.79437600       0.69186500       0.48610500
    66  H          0.70562400       0.30813500       0.98610500
    67  H          0.20562400       0.19186500       0.01389500
    68  H          0.29437600       0.80813500       0.51389500
    69  C          0.36830000       0.51561200       0.36804000
    70  C          0.13170000       0.48438800       0.86804000
    71  C          0.63170000       0.01561200       0.13196000
    72  C          0.86830000       0.98438800       0.63196000
    73  C          0.35040000       0.55091400       0.29254000
    74  C          0.14960000       0.44908600       0.79254000
    75  C          0.64960000       0.05091400       0.20746000
    76  C          0.85040000       0.94908600       0.70746000
    77  C          0.28040000       0.38851400       0.60156000
    78  C          0.21960000       0.61148600       0.10156000
    79  C          0.71960000       0.88851400       0.89844000
    80  C          0.78040000       0.11148600       0.39844000
    81  H          0.22513400       0.35703600       0.62828700
    82  H          0.27486600       0.64296400       0.12828700
    83  H          0.77486600       0.85703600       0.87171300
    84  H          0.72513400       0.14296400       0.37171300
    85  C          0.44730000       0.58641300       0.33245000
    86  C          0.05270000       0.41358700       0.83245000
    87  C          0.55270000       0.08641300       0.16755000
    88  C          0.94730000       0.91358700       0.66755000
    89  H          0.56698700       0.65866700       0.33578400
    90  H          0.93301300       0.34133300       0.83578400
    91  H          0.43301300       0.15866700       0.16421600
    92  H          0.06698700       0.84133300       0.66421600
    93  C          0.10240000       0.37201400       0.32285000
    94  C          0.39760000       0.62798600       0.82285000
    95  C          0.89760000       0.87201400       0.17715000
    96  C          0.60240000       0.12798600       0.67715000
    97  H         -0.00785300       0.29760300       0.31902800
    98  H          0.50785300       0.70239700       0.81902800
    99  H          0.00785300       0.79760300       0.18097200
   100  H          0.49214700       0.20239700       0.68097200
   101  C          0.18140000       0.32941400       0.56466000
   102  C          0.31860000       0.67058600       0.06466000
   103  C          0.81860000       0.82941400       0.93534000
   104  C          0.68140000       0.17058600       0.43534000
   105  H          0.06472200       0.25566700       0.56632800
   106  H          0.43527800       0.74433300       0.06632800
   107  H          0.93527800       0.75566700       0.93367200
   108  H          0.56472200       0.24433300       0.43367200
   109  C          0.65730000       0.65471400       0.42395000
   110  C          0.84270000       0.34528600       0.92395000
   111  C          0.34270000       0.15471400       0.07605000
   112  C          0.15730000       0.84528600       0.57605000
   113  H          0.74886000       0.71738200       0.40742200
   114  H          0.75114000       0.28261800       0.90742200
   115  H          0.25114000       0.21738200       0.09257800
   116  H          0.24886000       0.78261800       0.59257800
