data_GICKEM02
_symmetry_space_group_name_H-M    'P1'
_symmetry_Int_Tables_number       1
loop_
_symmetry_equiv_pos_site_id
_symmetry_equiv_pos_as_xyz
1 x,y,z
_cell_length_a                   13.49551
_cell_length_b                   8.98488
_cell_length_c                   20.192017
_cell_angle_alpha                90.0
_cell_angle_beta                 98.7763
_cell_angle_gamma                90.0
loop_
_atom_site_label
_atom_site_type_symbol
_atom_site_fract_x
_atom_site_fract_y
_atom_site_fract_z
     1  S          0.80963200       0.40817300       0.53348200
     2  S          0.69036800       0.90817300       0.96651800
     3  S          0.19036800       0.59182700       0.46651800
     4  S          0.30963200       0.09182700       0.03348200
     5  S          0.57736200       0.56937300       0.10914200
     6  S          0.92263800       0.06937300       0.39085800
     7  S          0.42263800       0.43062700       0.89085800
     8  S          0.07736200       0.93062700       0.60914200
     9  F          0.65843400       0.37778700       0.34160300
    10  F          0.84156600       0.87778700       0.15839700
    11  F          0.34156600       0.62221300       0.65839700
    12  F          0.15843400       0.12221300       0.84160300
    13  F          0.70900500       0.67582700       0.47446300
    14  F          0.79099500       0.17582700       0.02553700
    15  F          0.29099500       0.32417300       0.52553700
    16  F          0.20900500       0.82417300       0.97446300
    17  F          0.66834500       0.29864800       0.63143300
    18  F          0.83165500       0.79864800       0.86856700
    19  F          0.33165500       0.70135200       0.36856700
    20  F          0.16834500       0.20135200       0.13143300
    21  O          0.82347600       0.26730900       0.56671400
    22  O          0.67652400       0.76730900       0.93328600
    23  O          0.17652400       0.73269100       0.43328600
    24  O          0.32347600       0.23269100       0.06671400
    25  O          0.88230500       0.52349900       0.54851400
    26  O          0.61769500       0.02349900       0.95148600
    27  O          0.11769500       0.47650100       0.45148600
    28  O          0.38230500       0.97650100       0.04851400
    29  N          0.79594600       0.37058100       0.45441400
    30  N          0.70405400       0.87058100       0.04558600
    31  N          0.20405400       0.62941900       0.54558600
    32  N          0.29594600       0.12941900       0.95441400
    33  N          0.78354600       0.57203100       0.07607400
    34  N          0.71645400       0.07203100       0.42392600
    35  N          0.21645400       0.42796900       0.92392600
    36  N          0.28354600       0.92796900       0.57607400
    37  N          0.56760600       0.58392100       0.23493400
    38  N          0.93239400       0.08392100       0.26506600
    39  N          0.43239400       0.41607900       0.76506600
    40  N          0.06760600       0.91607900       0.73493400
    41  N          0.94784600       0.46806100       0.07866400
    42  N          0.55215400       0.96806100       0.42133600
    43  N          0.05215400       0.53193900       0.92133600
    44  N          0.44784600       0.03193900       0.57866400
    45  N          0.86620700       0.58747110       0.98481600
    46  N          0.63379300       0.08747110       0.51518400
    47  N          0.13379300       0.41252890       0.01518400
    48  N          0.36620700       0.91252890       0.48481600
    49  H          0.91881400       0.57082700       0.96495100
    50  H          0.58118600       0.07082700       0.53504900
    51  H          0.08118600       0.42917300       0.03504900
    52  H          0.41881400       0.92917300       0.46495100
    53  H          0.81391400       0.63494700       0.96336500
    54  H          0.68608600       0.13494700       0.53663500
    55  H          0.18608600       0.36505300       0.03663500
    56  H          0.31391400       0.86505300       0.46336500
    57  C          0.80870700       0.47031110       0.40190500
    58  C          0.69129300       0.97031110       0.09809500
    59  C          0.19129300       0.52968890       0.59809500
    60  C          0.30870700       0.02968890       0.90190500
    61  C          0.66731700       0.56241110       0.22914500
    62  C          0.83268300       0.06241110       0.27085500
    63  C          0.33268300       0.43758890       0.77085500
    64  C          0.16731700       0.93758890       0.72914500
    65  C          0.69459700       0.48309110       0.55131500
    66  C          0.80540300       0.98309110       0.94868500
    67  C          0.30540300       0.51690890       0.44868500
    68  C          0.19459700       0.01690890       0.05131500
    69  C          0.65833700       0.61513110       0.52025500
    70  C          0.84166300       0.11513110       0.97974500
    71  C          0.34166300       0.38486890       0.47974500
    72  C          0.15833700       0.88486890       0.02025500
    73  C          0.73717700       0.47252110       0.34443500
    74  C          0.76282300       0.97252110       0.15556500
    75  C          0.26282300       0.52747890       0.65556500
    76  C          0.23717700       0.02747890       0.84443500
    77  C          0.39907700       0.61073120       0.16485500
    78  C          0.10092300       0.11073120       0.33514500
    79  C          0.60092300       0.38926880       0.83514500
    80  C          0.89907700       0.88926880       0.66485500
    81  C          0.86572700       0.54033110       0.04801500
    82  C          0.63427300       0.04033110       0.45198500
    83  C          0.13427300       0.45966890       0.95198500
    84  C          0.36572700       0.95966890       0.54801500
    85  C          0.74426700       0.56364110       0.28976500
    86  C          0.75573300       0.06364110       0.21023500
    87  C          0.25573300       0.43635890       0.71023500
    88  C          0.24426700       0.93635890       0.78976500
    89  C          0.78032700       0.51869110       0.13793500
    90  C          0.71967300       0.01869110       0.36206500
    91  C          0.21967300       0.48130890       0.86206500
    92  C          0.28032700       0.98130890       0.63793500
    93  C          0.89174700       0.56298120       0.40422500
    94  C          0.60825300       0.06298120       0.09577500
    95  C          0.10825300       0.43701880       0.59577500
    96  C          0.39174700       0.93701880       0.90422500
    97  H          0.94245400       0.56220300       0.44242700
    98  H          0.55754600       0.06220300       0.05757300
    99  H          0.05754600       0.43779700       0.55757300
   100  H          0.44245400       0.93779700       0.94242700
   101  C          0.68730700       0.55020110       0.16444500
   102  C          0.81269300       0.05020110       0.33555500
   103  C          0.31269300       0.44979890       0.83555500
   104  C          0.18730700       0.94979890       0.66444500
   105  C          0.90054800       0.65670120       0.35067500
   106  C          0.59945200       0.15670120       0.14932500
   107  C          0.09945200       0.34329880       0.64932500
   108  C          0.40054800       0.84329880       0.85067500
   109  H          0.95691300       0.72079900       0.35275900
   110  H          0.54308700       0.22079900       0.14724100
   111  H          0.04308700       0.27920100       0.64724100
   112  H          0.45691300       0.77920100       0.85275900
   113  C          0.63872800       0.42471110       0.59811500
   114  C          0.86127200       0.92471110       0.90188500
   115  C          0.36127200       0.57528890       0.40188500
   116  C          0.13872800       0.07528890       0.09811500
   117  C          0.94208800       0.41703120       0.14019500
   118  C          0.55791200       0.91703120       0.35980500
   119  C          0.05791200       0.58296880       0.85980500
   120  C          0.44208800       0.08296880       0.64019500
   121  H         -0.00185300       0.36472600       0.16323700
   122  H          0.50185300       0.86472600       0.33676300
   123  H          0.00185300       0.63527400       0.83676300
   124  H          0.49814700       0.13527400       0.66323700
   125  C          0.85933800       0.43585120       0.17232500
   126  C          0.64066200       0.93585120       0.32767500
   127  C          0.14066200       0.56414880       0.82767500
   128  C          0.35933800       0.06414880       0.67232500
   129  H          0.85651800       0.39469600       0.21533400
   130  H          0.64348200       0.89469600       0.28466600
   131  H          0.14348200       0.60530400       0.78466600
   132  H          0.35651800       0.10530400       0.71533400
   133  C          0.51184700       0.58893110       0.17570500
   134  C         -0.01184700       0.08893110       0.32429500
   135  C          0.48815300       0.41106890       0.82429500
   136  C          0.01184700       0.91106890       0.67570500
   137  C          0.82768700       0.65747120       0.29415500
   138  C          0.67231300       0.15747120       0.20584500
   139  C          0.17231300       0.34252880       0.70584500
   140  C          0.32768700       0.84252880       0.79415500
   141  H          0.83456100       0.72249800       0.25803200
   142  H          0.66543900       0.22249800       0.24196800
   143  H          0.16543900       0.27750200       0.74196800
   144  H          0.33456100       0.77750200       0.75803200
   145  C          0.35726800       0.61281130       0.08986500
   146  C          0.14273200       0.11281130       0.41013500
   147  C          0.64273200       0.38718870       0.91013500
   148  C          0.85726800       0.88718870       0.58986500
   149  H          0.38747300       0.69532800       0.06825900
   150  H          0.11252700       0.19532800       0.43174100
   151  H          0.61252700       0.30467200       0.93174100
   152  H          0.88747300       0.80467200       0.56825900
   153  H          0.28434900       0.62585400       0.08393300
   154  H          0.21565100       0.12585400       0.41606700
   155  H          0.71565100       0.37414600       0.91606700
   156  H          0.78434900       0.87414600       0.58393300
   157  H          0.37324500       0.51856800       0.06944800
   158  H          0.12675500       0.01856800       0.43055200
   159  H          0.62675500       0.48143200       0.93055200
   160  H          0.87324500       0.98143200       0.56944800
   161  C          0.57309800       0.68585120       0.53342600
   162  C          0.92690200       0.18585120       0.96657400
   163  C          0.42690200       0.31414880       0.46657400
   164  C          0.07309800       0.81414880       0.03342600
   165  H          0.55095400       0.77564100       0.51107900
   166  H          0.94904600       0.27564100       0.98892100
   167  H          0.44904600       0.22435900       0.48892100
   168  H          0.05095400       0.72435900       0.01107900
   169  C          0.52026800       0.62288130       0.58010600
   170  C          0.97973200       0.12288130       0.91989400
   171  C          0.47973200       0.37711870       0.41989400
   172  C          0.02026800       0.87711870       0.08010600
   173  H          0.46119700       0.67022400       0.58981200
   174  H          0.03880300       0.17022400       0.91018800
   175  H          0.53880300       0.32977600       0.41018800
   176  H          0.96119700       0.82977600       0.08981200
   177  C          0.55233800       0.49175130       0.61285500
   178  C          0.94766200      -0.00824870       0.88714500
   179  C          0.44766200       0.50824870       0.38714500
   180  C          0.05233800       0.00824870       0.11285500
   181  H          0.51577800       0.44888800       0.64471900
   182  H          0.98422200       0.94888800       0.85528100
   183  H          0.48422200       0.55111200       0.35528100
   184  H          0.01577800       0.05111200       0.14471900
   185  C          0.35129800       0.48169150       0.19872600
   186  C          0.14870200       0.98169150       0.30127400
   187  C          0.64870200       0.51830850       0.80127400
   188  C          0.85129800       0.01830850       0.69872600
   189  H          0.36619800       0.38743200       0.17788500
   190  H          0.13380200       0.88743200       0.32211500
   191  H          0.63380200       0.61256800       0.82211500
   192  H          0.86619800       0.11256800       0.67788500
   193  H          0.27851000       0.49595600       0.19333000
   194  H          0.22149000      -0.00404400       0.30667000
   195  H          0.72149000       0.50404400       0.80667000
   196  H          0.77851000       0.00404400       0.69333000
   197  H          0.37869700       0.47939000       0.24653100
   198  H          0.12130300       0.97939000       0.25346900
   199  H          0.62130300       0.52061000       0.75346900
   200  H          0.87869700       0.02061000       0.74653100
   201  C          0.37589900       0.75949140       0.19658600
   202  C          0.12410100       0.25949140       0.30341400
   203  C          0.62410100       0.24050860       0.80341400
   204  C          0.87589900       0.74050860       0.69658600
   205  H          0.39973200       0.75631300       0.24489600
   206  H          0.10026800       0.25631300       0.25510400
   207  H          0.60026800       0.24368700       0.75510400
   208  H          0.89973200       0.74368700       0.74489600
   209  H          0.30335200       0.77683300       0.18875200
   210  H          0.19664800       0.27683300       0.31124800
   211  H          0.69664800       0.22316700       0.81124800
   212  H          0.80335200       0.72316700       0.68875200
   213  H          0.40979000       0.84030000       0.17634700
   214  H          0.09021000       0.34030000       0.32365300
   215  H          0.59021000       0.15970000       0.82365300
   216  H          0.90979000       0.65970000       0.67634700
   217  H          0.77341200       0.28420000       0.44518000
   218  H          0.72658800       0.78420000       0.05482000
   219  H          0.22658800       0.71580000       0.55482000
   220  H          0.27341200       0.21580000       0.94518000
