data_GICKEM01
_symmetry_space_group_name_H-M    'P1'
_symmetry_Int_Tables_number       1
loop_
_symmetry_equiv_pos_site_id
_symmetry_equiv_pos_as_xyz
1 x,y,z
_cell_length_a                   7.87742
_cell_length_b                   12.00713
_cell_length_c                   13.62243
_cell_angle_alpha                113.80301
_cell_angle_beta                 102.44001
_cell_angle_gamma                94.77501
loop_
_atom_site_label
_atom_site_type_symbol
_atom_site_fract_x
_atom_site_fract_y
_atom_site_fract_z
     1  S          0.68059300       0.25349200       0.78861200
     2  S          0.31940700       0.74650800       0.21138800
     3  F          0.18883110       0.79294900       0.82257700
     4  F          0.81116890       0.20705100       0.17742300
     5  S          0.87038300       0.84606200       0.68372200
     6  S          0.12961700       0.15393800       0.31627800
     7  F          0.62084120       0.89196800       0.82202700
     8  F          0.37915880       0.10803200       0.17797300
     9  F          0.63562900       0.59868600       0.71999500
    10  F          0.36437100       0.40131400       0.28000500
    11  O          0.02516110       0.81696800       0.64729700
    12  O          0.97483890       0.18303200       0.35270300
    13  O          0.81837120       0.96049700       0.69289700
    14  O          0.18162880       0.03950300       0.30710300
    15  N          0.49930110       0.26888800       0.61587700
    16  N          0.50069890       0.73111200       0.38412300
    17  N          0.03866110       0.39261800       0.88726700
    18  N          0.96133890       0.60738200       0.11273300
    19  N          0.29132120       0.42322900       0.02517800
    20  N          0.70867880       0.57677100       0.97482200
    21  N          0.31646120       0.50828900       0.90441800
    22  N          0.68353880       0.49171100       0.09558200
    23  C          0.66035120       0.34790800       0.65162800
    24  C          0.33964880       0.65209200       0.34837200
    25  C          0.68204120       0.54245900       0.62431800
    26  C          0.31795880       0.45754100       0.37568200
    27  C          0.76487130       0.55050900       0.46799800
    28  C          0.23512870       0.44949100       0.53200200
    29  H          0.79084300       0.59528800       0.42761400
    30  H          0.20915700       0.40471200       0.57238600
    31  C          0.77766120       0.35153900       0.74405800
    32  C          0.22233880       0.64846100       0.25594200
    33  C          0.21219130       0.44218900       0.93679800
    34  C          0.78780870       0.55781100       0.06320200
    35  C          0.69371120       0.41778900       0.58718800
    36  C          0.30628880       0.58221100       0.41281200
    37  C          0.71736120       0.61060900       0.56652800
    38  C          0.28263880       0.38939100       0.43347200
    39  C          0.49131120       0.21327900       0.68121800
    40  C          0.50868880       0.78672100       0.31878200
    41  C          0.96188120       0.41535900       0.80105800
    42  C          0.03811880       0.58464100       0.19894200
    43  C          0.77451130       0.42570900       0.42841800
    44  C          0.22548870       0.57429100       0.57158200
    45  H          0.80535000       0.38520900       0.36060300
    46  H          0.19465000       0.61479100       0.63939700
    47  C          0.33281130       0.12087900       0.66519800
    48  C          0.66718870       0.87912100       0.33480200
    49  C          0.23461140       0.53139110       0.82041900
    50  C          0.76538860       0.46860890       0.17958100
    51  H          0.30271000       0.57941400       0.79646000
    52  H          0.69729000       0.42058600       0.20354000
    53  C          0.32890160      -0.00458100       0.56970100
    54  C          0.67109840       0.00458100       0.43029900
    55  H          0.22645900       0.93541900       0.55913600
    56  H          0.77354100       0.06458100       0.44086400
    57  H          0.31988900       0.00525100       0.50086400
    58  H          0.68011100      -0.00525100       0.49913600
    59  H          0.43786500       0.96547400       0.58812600
    60  H          0.56213500       0.03452600       0.41187400
    61  C          0.05579130       0.48944100       0.76588900
    62  C          0.94420870       0.51055900       0.23411100
    63  H          0.00008600       0.50985300       0.70785100
    64  H         -0.00008600       0.49014700       0.29214900
    65  C          0.16259140       0.16777110       0.63619110
    66  C          0.83740860       0.83222890       0.36380890
    67  H          0.06003600       0.10798700       0.62583000
    68  H          0.93996400       0.89201300       0.37417000
    69  H          0.16525900       0.24805600       0.69699700
    70  H          0.83474100       0.75194400       0.30300300
    71  H          0.15362200       0.17726900       0.56720600
    72  H          0.84637800       0.82273100       0.43279400
    73  C          0.73916130       0.35980900       0.48770800
    74  C          0.26083870       0.64019100       0.51229200
    75  H          0.74607800       0.27441100       0.46008900
    76  H          0.25392200       0.72558900       0.53991100
    77  C          0.90051160       0.84066100       0.81406900
    78  C          0.09948840       0.15933900       0.18593100
    79  C          0.05414180       0.81624110       0.86903100
    80  C          0.94585820       0.18375890       0.13096900
    81  C          0.34472170       0.10504120       0.77268100
    82  C          0.65527830       0.89495880       0.22731900
    83  H          0.24164200       0.04512900       0.76143500
    84  H          0.75835800       0.95487100       0.23856500
    85  H          0.45319700       0.07481700       0.79156600
    86  H          0.54680300       0.92518300       0.20843400
    87  H          0.34690500       0.18507200       0.83365400
    88  H          0.65309500       0.81492800       0.16634600
    89  C          0.77045190       0.86719110       0.87053100
    90  C          0.22954810       0.13280890       0.12946900
    91  C          0.78962000       0.87003120       0.97515110
    92  C          0.21038000       0.12996880       0.02484890
    93  H          0.69856400       0.88904200       0.01163600
    94  H          0.30143600       0.11095800      -0.01163600
    95  C          0.94412000       0.84458120       0.02523100
    96  C          0.05588000       0.15541880       0.97476900
    97  H          0.95924500       0.84654800       0.09705700
    98  H          0.04075500       0.15345200       0.90294300
    99  C          0.07632000       0.81640120       0.97259110
   100  C          0.92368000       0.18359880       0.02740890
   101  H          0.18099800       0.79737400       0.00689400
   102  H          0.81900200       0.20262600      -0.00689400
   103  N          0.69612110       0.73738800       0.60507700
   104  N          0.30387890       0.26261200       0.39492300
   105  H          0.23120000       0.38371600       0.04881400
   106  H          0.76880000       0.61628400       0.95118600
   107  H          0.40330000       0.44691700       0.05121500
   108  H          0.59670000       0.55308300       0.94878500
   109  H          0.64930000       0.75381800       0.55381600
   110  H          0.35070000       0.24618200       0.44618400
