data_GICKEM
_symmetry_space_group_name_H-M    'P1'
_symmetry_Int_Tables_number       1
loop_
_symmetry_equiv_pos_site_id
_symmetry_equiv_pos_as_xyz
1 x,y,z
_cell_length_a                   9.09894
_cell_length_b                   11.03805
_cell_length_c                   12.31066
_cell_angle_alpha                83.9622
_cell_angle_beta                 71.2492
_cell_angle_gamma                82.5132
loop_
_atom_site_label
_atom_site_type_symbol
_atom_site_fract_x
_atom_site_fract_y
_atom_site_fract_z
     1  S          0.24127300       0.22929200       0.03566200
     2  S          0.75872700       0.77070800       0.96433800
     3  F          0.36630120       0.48258800       0.96214900
     4  F          0.63369880       0.51741200       0.03785100
     5  S          0.41206300       0.25154200       0.67182200
     6  S          0.58793700       0.74845800       0.32817800
     7  F          0.94282900       0.28646800       0.20796100
     8  F          0.05717100       0.71353200       0.79203900
     9  F          0.22203600       0.22333600       0.35984500
    10  F          0.77796400       0.77666400       0.64015500
    11  O          0.12339100       0.17523700       0.00795700
    12  O          0.87660900       0.82476300      -0.00795700
    13  O          0.38934100       0.24153700       0.95138400
    14  O          0.61065900       0.75846300       0.04861600
    15  N          0.26499900       0.14642700       0.14669700
    16  N          0.73500100       0.85357300       0.85330300
    17  N          0.14999900       0.13098700       0.71052600
    18  N          0.85000100       0.86901300       0.28947400
    19  N         -0.00510900       0.97442300       0.70396700
    20  N          0.00510900       0.02557700       0.29603300
    21  N          0.94900900       0.07679800       0.86924700
    22  N          0.05099100       0.92320200       0.13075300
    23  N          0.58941900       0.29025700       0.46533700
    24  N          0.41058100       0.70974300       0.53466300
    25  C          0.37015900       0.18799800       0.29628700
    26  C          0.62984100       0.81200200       0.70371300
    27  C          0.39435100       0.15293800       0.18567700
    28  C          0.60564900       0.84706200       0.81432300
    29  C          0.21152110       0.02549800       0.53927700
    30  C          0.78847890       0.97450200       0.46072300
    31  H          0.27493200       0.01153600       0.46272300
    32  H          0.72506800      -0.01153600       0.53727700
    33  C          0.49178100       0.18889800       0.34146700
    34  C          0.50821900       0.81110200       0.65853300
    35  C          0.64316100       0.16106900       0.26760800
    36  C          0.35683900       0.83893100       0.73239200
    37  H          0.72950400       0.16542000       0.29399200
    38  H          0.27049600       0.83458000       0.70600800
    39  C          0.15819110       0.37653800       0.08182800
    40  C          0.84180890       0.62346200       0.91817200
    41  C          0.23913100       0.11442800       0.60156700
    42  C          0.76086900       0.88557200       0.39843300
    43  C          0.08631110       0.95899200       0.59577800
    44  C          0.91368890       0.04100800       0.40422200
    45  H          0.06396200       0.89876900       0.55523800
    46  H          0.93603800       0.10123100       0.44476200
    47  C          0.57056100       0.31186900       0.57177800
    48  C          0.42943900       0.68813100       0.42822200
    49  C          0.03430100       0.05983800       0.75769700
    50  C          0.96569900       0.94016200       0.24230300
    51  C          0.54626110       0.12035900       0.11637800
    52  C          0.45373890       0.87964100       0.88362200
    53  H          0.56469600       0.09358100       0.04183800
    54  H          0.43530400       0.90641900       0.95816200
    55  C          0.47555100       0.22207800       0.45835700
    56  C          0.52444900       0.77792200       0.54164300
    57  C          0.67994110       0.37898900       0.60885900
    58  C          0.32005890       0.62101100       0.39114100
    59  C          0.36899100       0.19079800       0.56285700
    60  C          0.63100900       0.80920200       0.43714300
    61  C          0.67020110       0.12734100       0.15707800
    62  C          0.32979890       0.87265900       0.84292200
    63  H          0.77416100       0.10889800       0.10889900
    64  H          0.22583900       0.89110200       0.89110100
    65  C          0.01040120       0.38893100       0.16302100
    66  C          0.98959880       0.61106900       0.83697900
    67  C          0.58629130       0.46256100       0.70436100
    68  C          0.41370870       0.53743900       0.29563900
    69  H          0.65786200       0.50546800       0.72770800
    70  H          0.34213800       0.49453200       0.27229200
    71  H          0.51539300       0.52254200       0.67606600
    72  H          0.48460700       0.47745800       0.32393400
    73  H          0.52560400       0.41323400       0.77050200
    74  H          0.47439600       0.58676600       0.22949800
    75  C          0.22584140       0.48522100       0.04059100
    76  C          0.77415860       0.51477900       0.95940900
    77  C          0.78706160       0.28266130       0.65534130
    78  C          0.21293840       0.71733870       0.34465870
    79  H          0.85897500       0.32389200       0.67990100
    80  H          0.14102500       0.67610800       0.32009900
    81  H          0.72356600       0.23439800       0.72101100
    82  H          0.27643400       0.76560200       0.27898900
    83  H          0.84686800       0.22834600       0.59472600
    84  H          0.15313200       0.77165400       0.40527400
    85  C          0.93126860       0.49950110       0.19999110
    86  C          0.06873140       0.50049890       0.80000890
    87  H          0.82955300       0.50359300       0.25422100
    88  H          0.17044700       0.49640700       0.74577900
    89  C          0.00392150       0.60449100       0.15602900
    90  C         -0.00392150       0.39550900       0.84397100
    91  H          0.95147900       0.68185400       0.18037900
    92  H          0.04852100       0.31814600       0.81962100
    93  C          0.15140160       0.59839110       0.07731110
    94  C          0.84859840       0.40160890       0.92268890
    95  H          0.20147200       0.67075000       0.04855400
    96  H          0.79852800       0.32925000       0.95144600
    97  C          0.77712150       0.45466140       0.50619110
    98  C          0.22287850       0.54533860       0.49380890
    99  H          0.84754900       0.49781800       0.53052400
   100  H          0.15245100       0.50218200       0.46947600
   101  H          0.83847200       0.40036200       0.44598500
   102  H          0.16152800       0.59963800       0.55401500
   103  H          0.70774100       0.51438600       0.47614000
   104  H          0.29225900       0.48561400       0.52386000
   105  H          0.18020000       0.12151800       0.19681700
   106  H          0.81980000       0.87848200       0.80318300
   107  H         -0.00720000       0.11621600       0.90771500
   108  H          0.00720000       0.88378400       0.09228500
   109  H          0.89658100       0.01331600       0.90771500
   110  H          0.10341900       0.98668400       0.09228500
