data_GIXLOR03
_symmetry_space_group_name_H-M    'P1'
_symmetry_Int_Tables_number       1
loop_
_symmetry_equiv_pos_site_id
_symmetry_equiv_pos_as_xyz
1 x,y,z
_cell_length_a                   5.03023
_cell_length_b                   7.88265
_cell_length_c                   12.68888
_cell_angle_alpha                71.938917
_cell_angle_beta                 82.038418
_cell_angle_gamma                74.188418
loop_
_atom_site_label
_atom_site_type_symbol
_atom_site_fract_x
_atom_site_fract_y
_atom_site_fract_z
     1  I          0.42696516       0.82536713       0.84684990
     2  I          0.40045013       0.19268611       0.08885580
     3  O          0.76653000       0.21078170       0.52558100
     4  N          0.58583000       0.17006190       0.34859120
     5  H          0.67570000       0.05400000       0.38540000
     6  H          0.53220000       0.16980000       0.28300000
     7  H          0.43410000       0.21000000       0.39070000
     8  C          0.91914000       0.66053000       0.11447150
     9  H          0.91490000       0.60830000       0.05670000
    10  C          0.78625000       0.62293000       0.21680170
    11  C          0.01603000       0.83102000       0.20552150
    12  H          0.08900000       0.91690000       0.22370000
    13  N          0.06094000       0.78903000       0.11095160
    14  H          0.16600000       0.83610000       0.05400000
    15  C          0.60923000       0.49132000       0.26823150
    16  H          0.50340000       0.48510000       0.20990000
    17  H          0.47430000       0.53890000       0.32320000
    18  C          0.77374000       0.29442000       0.32666130
    19  H          0.93210000       0.25520000       0.27550000
    20  O          0.08913000       0.35006180       0.42568110
    21  N          0.85063000       0.73172000       0.27075130
    22  H          0.79060000       0.73500000       0.33880000
    23  C          0.88713000       0.28332000       0.43524130
    24  C          0.20273000       0.52252000       0.60254140
    25  H          0.11260000       0.52440000       0.53740000
    26  H          0.39920000       0.45580000       0.59650000
    27  O          0.14893000       0.91371180       0.41216100
    28  N          0.90867000       0.30192000       0.70248130
    29  H          0.87840000       0.27790000       0.64250000
    30  C          0.18943000       0.72032000       0.59873130
    31  H          0.30110000       0.72040000       0.65810000
    32  N          0.89827000       0.29882000       0.87209130
    33  H          0.85980000       0.27260000       0.94430000
    34  C          0.81015000       0.23143000       0.80463190
    35  H          0.69590000       0.14680000       0.82540000
    36  C          0.05954000       0.41622000       0.81292140
    37  H          0.14850000       0.48240000       0.84210000
    38  C          0.06754000       0.41973000       0.70536170
    39  O          0.57302000       0.77266180       0.47280100
    40  N          0.89737000       0.82098190       0.61452120
    41  H          0.88450000       0.94420000       0.59150000
    42  H          0.84100000       0.78700000       0.68770000
    43  H          0.78780000       0.79330000       0.57400000
    44  C          0.31013000       0.81272000       0.48422130
