data_GIXLOR
_symmetry_space_group_name_H-M    'P1'
_symmetry_Int_Tables_number       1
loop_
_symmetry_equiv_pos_site_id
_symmetry_equiv_pos_as_xyz
1 x,y,z
_cell_length_a                   5.04351
_cell_length_b                   8.965918
_cell_length_c                   10.3122
_cell_angle_alpha                90.0
_cell_angle_beta                 96.213
_cell_angle_gamma                90.0
loop_
_atom_site_label
_atom_site_type_symbol
_atom_site_fract_x
_atom_site_fract_y
_atom_site_fract_z
     1  I          0.63125819       0.32666116       0.15580080
     2  I          0.36874181       0.82666116       0.84419920
     3  O          0.69922000       0.67221120       0.39927120
     4  O          0.30078000       0.17221120       0.60072880
     5  O          0.32752000       0.61674130       0.48864130
     6  O          0.67248000       0.11674130       0.51135870
     7  C          0.56523000       0.59421160       0.47007150
     8  C          0.43477000       0.09421160       0.52992850
     9  C          0.69973000       0.46237170       0.54486150
    10  C          0.30027000       0.96237170       0.45513850
    11  H          0.56730000       0.37930000       0.54500000
    12  H          0.43270000       0.87930000       0.45500000
    13  N          0.93333000       0.40779140       0.48225130
    14  N          0.06667000       0.90779140       0.51774870
    15  H          0.88110000       0.38410000       0.39750000
    16  H          0.11890000       0.88410000       0.60250000
    17  H          0.00200000       0.32540000       0.52520000
    18  H         -0.00200000       0.82540000       0.47480000
    19  H          0.05990000       0.48040000       0.48570000
    20  H          0.94010000       0.98040000       0.51430000
    21  C          0.78134000       0.51011170       0.68663150
    22  C          0.21866000       0.01011170       0.31336850
    23  H          0.91900000       0.58890000       0.68760000
    24  H          0.08100000       0.08890000       0.31240000
    25  H          0.62430000       0.55350000       0.72270000
    26  H          0.37570000       0.05350000       0.27730000
    27  C          0.88724000       0.38538190       0.77208150
    28  C          0.11276000       0.88538190       0.22791850
    29  N          0.75873000       0.24948160       0.77846130
    30  N          0.24127000       0.74948160       0.22153870
    31  H          0.60500000       0.22600000       0.73450000
    32  H          0.39500000       0.72600000       0.26550000
    33  C          0.90314000       0.15982000       0.86113170
    34  C          0.09686000       0.65982000       0.13886830
    35  H          0.85910000       0.06040000       0.88250000
    36  H          0.14090000       0.56040000       0.11750000
    37  N          0.11983000       0.23432000       0.90838160
    38  N          0.88017000       0.73432000       0.09161840
    39  H          0.24770000       0.19880000       0.96470000
    40  H          0.75230000       0.69880000       0.03530000
    41  C          0.11374000       0.37502000       0.85598180
    42  C          0.88626000       0.87502000       0.14401820
    43  H          0.24340000       0.45100000       0.87480000
    44  H          0.75660000       0.95100000       0.12520000
