data_GIXLOR02
_symmetry_space_group_name_H-M    'P1'
_symmetry_Int_Tables_number       1
loop_
_symmetry_equiv_pos_site_id
_symmetry_equiv_pos_as_xyz
1 x,y,z
_cell_length_a                   7.85782
_cell_length_b                   9.50113
_cell_length_c                   24.38687
_cell_angle_alpha                90.0
_cell_angle_beta                 90.0
_cell_angle_gamma                90.0
loop_
_atom_site_label
_atom_site_type_symbol
_atom_site_fract_x
_atom_site_fract_y
_atom_site_fract_z
     1  I          0.56179219       0.60036815       0.43613850
     2  I          0.06179219       0.89963185       0.56386150
     3  I          0.43820781       0.10036815       0.06386150
     4  I          0.93820781       0.39963185       0.93613850
     5  I          0.32955519       0.35571414       0.57329050
     6  I          0.82955519       0.14428586       0.42670950
     7  I          0.67044481       0.85571414       0.92670950
     8  I          0.17044481       0.64428586       0.07329050
     9  O          0.55842000       0.63739850       0.27796500
    10  O          0.05842000       0.86260150       0.72203500
    11  O          0.44158000       0.13739850       0.22203500
    12  O          0.94158000       0.36260150       0.77796500
    13  O          0.55292000       0.81753850       0.21925500
    14  O          0.05292000       0.68246150       0.78074500
    15  O          0.44708000       0.31753850       0.28074500
    16  O          0.94708000       0.18246150       0.71925500
    17  N          0.66052000      -0.00391160       0.29784600
    18  N          0.16052000       0.50391160       0.70215400
    19  N          0.33948000       0.49608840       0.20215400
    20  N          0.83948000       0.00391160       0.79784600
    21  H          0.67470000       0.05420000       0.32720000
    22  H          0.17470000       0.44580000       0.67280000
    23  H          0.32530000       0.55420000       0.17280000
    24  H          0.82530000       0.94580000       0.82720000
    25  H          0.60250000       0.04230000       0.27100000
    26  H          0.10250000       0.45770000       0.72900000
    27  H          0.39750000       0.54230000       0.22900000
    28  H          0.89750000       0.95770000       0.77100000
    29  H          0.76420000       0.96930000       0.28490000
    30  H          0.26420000       0.53070000       0.71510000
    31  H          0.23580000       0.46930000       0.21510000
    32  H          0.73580000       0.03070000       0.78490000
    33  N          0.38262000       0.15772190       0.36992600
    34  N          0.88262000       0.34227810       0.63007400
    35  N          0.61738000       0.65772190       0.13007400
    36  N          0.11738000       0.84227810       0.86992600
    37  H          0.40150000       0.20010000       0.33840000
    38  H          0.90150000       0.29990000       0.66160000
    39  H          0.59850000       0.70010000       0.16160000
    40  H          0.09850000       0.79990000       0.83840000
    41  N          0.33492000       0.12359190       0.45558600
    42  N          0.83492000       0.37640810       0.54441400
    43  N          0.66508000       0.62359190       0.04441400
    44  N          0.16508000       0.87640810       0.95558600
    45  H          0.31700000       0.13970000       0.49070000
    46  H          0.81700000       0.36030000       0.50930000
    47  H          0.68300000       0.63970000       0.00930000
    48  H          0.18300000       0.86030000       0.99070000
    49  C          0.55913000       0.76438810       0.26684700
    50  C          0.05913000       0.73561190       0.73315300
    51  C          0.44087000       0.26438810       0.23315300
    52  C          0.94087000       0.23561190       0.76684700
    53  C          0.56312000       0.86978820       0.31491600
    54  C          0.06312000       0.63021180       0.68508400
    55  C          0.43688000       0.36978820       0.18508400
    56  C          0.93688000       0.13021180       0.81491600
    57  H          0.62130000       0.82500000       0.34690000
    58  H          0.12130000       0.67500000       0.65310000
    59  H          0.37870000       0.32500000       0.15310000
    60  H          0.87870000       0.17500000       0.84690000
    61  C          0.38092000       0.90958000       0.33140700
    62  C          0.88092000       0.59042000       0.66859300
    63  C          0.61908000       0.40958000       0.16859300
    64  C          0.11908000       0.09042000       0.83140700
    65  H          0.32240000       0.94890000       0.29890000
    66  H          0.82240000       0.55110000       0.70110000
    67  H          0.67760000       0.44890000       0.20110000
    68  H          0.17760000       0.05110000       0.79890000
    69  H          0.31980000       0.82270000       0.34210000
    70  H          0.81980000       0.67730000       0.65790000
    71  H          0.68020000       0.32270000       0.15790000
    72  H          0.18020000       0.17730000       0.84210000
    73  C          0.36662000       0.01332000       0.37727800
    74  C          0.86662000       0.48668000       0.62272200
    75  C          0.63338000       0.51332000       0.12272200
    76  C          0.13338000      -0.01332000       0.87727800
    77  C          0.33603000      -0.00672000       0.43155800
    78  C          0.83603000       0.50672000       0.56844200
    79  C          0.66397000       0.49328000       0.06844200
    80  C          0.16397000       0.00672000       0.93155800
    81  H          0.31870000       0.90560000       0.44940000
    82  H          0.81870000       0.59440000       0.55060000
    83  H          0.68130000       0.40560000       0.05060000
    84  H          0.18130000       0.09440000       0.94940000
    85  C          0.36463000       0.22192000       0.41817800
    86  C          0.86463000       0.27808000       0.58182200
    87  C          0.63537000       0.72192000       0.08182200
    88  C          0.13537000       0.77808000       0.91817800
    89  H          0.37190000       0.32030000       0.42460000
    90  H          0.87190000       0.17970000       0.57540000
    91  H          0.62810000       0.82030000       0.07540000
    92  H          0.12810000       0.67970000       0.92460000
    93  O          0.05442000       0.34000170       0.22059500
    94  O          0.55442000       0.15999830       0.77940500
    95  O          0.94558000       0.84000170       0.27940500
    96  O          0.44558000       0.65999830       0.72059500
    97  O          0.84208000       0.21790160       0.25793600
    98  O          0.34208000       0.28209840       0.74206400
    99  O          0.15792000       0.71790160       0.24206400
   100  O          0.65792000       0.78209840       0.75793600
   101  N          0.75458000       0.41610180       0.32919600
   102  N          0.25458000       0.08389820       0.67080400
   103  N          0.24542000       0.91610180       0.17080400
   104  N          0.74542000       0.58389820       0.82919600
   105  H          0.72770000       0.49510000       0.34840000
   106  H          0.22770000       0.00490000       0.65160000
   107  H          0.27230000      -0.00490000       0.15160000
   108  H          0.77230000       0.50490000       0.84840000
   109  H          0.77160000       0.34340000       0.35290000
   110  H          0.27160000       0.15660000       0.64710000
   111  H          0.22840000       0.84340000       0.14710000
   112  H          0.72840000       0.65660000       0.85290000
   113  H          0.66780000       0.39450000       0.30600000
   114  H          0.16780000       0.10550000       0.69400000
   115  H          0.33220000       0.89450000       0.19400000
   116  H          0.83220000       0.60550000       0.80600000
   117  N          0.00672000       0.69238190       0.37056700
   118  N          0.50672000       0.80761810       0.62943300
   119  N         -0.00672000       0.19238190       0.12943300
   120  N          0.49328000       0.30761810       0.87056700
   121  H         -0.01610000       0.72970000       0.33840000
   122  H          0.48390000       0.77030000       0.66160000
   123  H          0.01610000       0.22970000       0.16160000
   124  H          0.51610000       0.27030000       0.83840000
   125  N          0.04943000       0.67192000       0.45728600
   126  N          0.54943000       0.82808000       0.54271400
   127  N          0.95057000       0.17192000       0.04271400
   128  N          0.45057000       0.32808000       0.95728600
   129  H          0.06020000       0.69330000       0.49220000
   130  H          0.56020000       0.80670000       0.50780000
   131  H          0.93980000       0.19330000       0.00780000
   132  H          0.43980000       0.30670000       0.99220000
   133  C          0.93597000       0.32091190       0.25557700
   134  C          0.43597000       0.17908810       0.74442300
   135  C          0.06403000       0.82091190       0.24442300
   136  C          0.56403000       0.67908810       0.75557700
   137  C          0.91258000       0.44122000       0.29701700
   138  C          0.41258000       0.05878000       0.70298300
   139  C          0.08742000       0.94122000       0.20298300
   140  C          0.58742000       0.55878000       0.79701700
   141  H          0.90190000       0.53230000       0.27680000
   142  H          0.40190000       0.96770000       0.72320000
   143  H          0.09810000       0.03230000       0.22320000
   144  H          0.59810000       0.46770000       0.77680000
   145  C          0.06783000       0.44792000       0.33509700
   146  C          0.56783000       0.05208000       0.66490300
   147  C          0.93217000       0.94792000       0.16490300
   148  C          0.43217000       0.55208000       0.83509700
   149  H          0.08600000       0.35390000       0.35160000
   150  H          0.58600000       0.14610000       0.64840000
   151  H          0.91400000       0.85390000       0.14840000
   152  H          0.41400000       0.64610000       0.85160000
   153  H          0.16980000       0.47100000       0.31300000
   154  H          0.66980000       0.02900000       0.68700000
   155  H          0.83020000       0.97100000       0.18700000
   156  H          0.33020000       0.52900000       0.81300000
   157  C          0.05033000       0.55372000       0.37987700
   158  C          0.55033000       0.94628000       0.62012300
   159  C          0.94967000       0.05372000       0.12012300
   160  C          0.44967000       0.44628000       0.87987700
   161  C          0.07633000       0.54052000       0.43480800
   162  C          0.57633000       0.95948000       0.56519200
   163  C          0.92367000       0.04052000       0.06519200
   164  C          0.42367000       0.45948000       0.93480800
   165  H          0.10690000       0.45720000       0.45390000
   166  H          0.60690000       0.04280000       0.54610000
   167  H          0.89310000       0.95720000       0.04610000
   168  H          0.39310000       0.54280000       0.95390000
   169  C          0.00503000       0.76042000       0.41818900
   170  C          0.50503000       0.73958000       0.58181100
   171  C         -0.00503000       0.26042000       0.08181100
   172  C          0.49497000       0.23958000       0.91818900
   173  H          0.97640000       0.85670000       0.42320000
   174  H          0.47640000       0.64330000       0.57680000
   175  H          0.02360000       0.35670000       0.07680000
   176  H          0.52360000       0.14330000       0.92320000
