data_GIXLOR01
_symmetry_space_group_name_H-M    'P1'
_symmetry_Int_Tables_number       1
loop_
_symmetry_equiv_pos_site_id
_symmetry_equiv_pos_as_xyz
1 x,y,z
_cell_length_a                   5.72522
_cell_length_b                   8.23123
_cell_length_c                   9.95534
_cell_angle_alpha                90.0
_cell_angle_beta                 94.1482
_cell_angle_gamma                90.0
loop_
_atom_site_label
_atom_site_type_symbol
_atom_site_fract_x
_atom_site_fract_y
_atom_site_fract_z
     1  I          0.61316711       0.49013317       0.10702860
     2  I          0.38683289      -0.00986683       0.89297140
     3  O          0.18773140       0.44506100       0.48068100
     4  O          0.81226860       0.94506100       0.51931900
     5  O          0.29814160       0.67327110       0.38280100
     6  O          0.70185840       0.17327110       0.61719900
     7  C          0.33715180       0.54808140       0.45001110
     8  C          0.66284820       0.04808140       0.54998890
     9  C          0.58774170       0.52130100       0.51214100
    10  C          0.41225830       0.02130100       0.48785900
    11  H          0.62800000       0.40350000       0.50530000
    12  H          0.37200000       0.90350000       0.49470000
    13  N          0.75923160       0.61846120       0.44029900
    14  N          0.24076840       0.11846120       0.55970100
    15  H          0.72130000       0.61380000       0.35000000
    16  H          0.27870000       0.11380000       0.65000000
    17  H          0.90560000       0.57730000       0.45860000
    18  H          0.09440000       0.07730000       0.54140000
    19  H          0.75560000       0.72360000       0.46830000
    20  H          0.24440000       0.22360000       0.53170000
    21  C          0.59092000       0.56866160       0.66170110
    22  C          0.40908000       0.06866160       0.33829890
    23  H          0.54280000       0.68390000       0.66710000
    24  H          0.45720000       0.18390000       0.33290000
    25  H          0.47140000       0.50280000       0.70390000
    26  H          0.52860000       0.00280000       0.29610000
    27  C          0.81762000       0.54862150       0.74273110
    28  C          0.18238000       0.04862150       0.25726890
    29  N          0.91227190       0.39906130       0.77851100
    30  N          0.08772810       0.89906130       0.22148900
    31  H          0.85640000       0.30420000       0.75100000
    32  H          0.14360000       0.80420000       0.24900000
    33  C          0.95602000       0.66251160       0.80589130
    34  C          0.04398000       0.16251160       0.19410870
    35  H          0.93590000       0.77700000       0.80060000
    36  H          0.06410000       0.27700000       0.19940000
    37  C          0.10153000       0.42222000       0.86132160
    38  C          0.89847000       0.92222000       0.13867840
    39  H          0.19920000       0.33950000       0.90110000
    40  H          0.80080000       0.83950000       0.09890000
    41  N          0.13073000       0.58082170       0.87892140
    42  N          0.86927000       0.08082170       0.12107860
    43  H          0.24340000       0.62030000       0.93820000
    44  H          0.75660000       0.12030000       0.06180000
