data_GLUTAS04
_symmetry_space_group_name_H-M    'P1'
_symmetry_Int_Tables_number       1
loop_
_symmetry_equiv_pos_site_id
_symmetry_equiv_pos_as_xyz
1 x,y,z
_cell_length_a                   5.30333
_cell_length_b                   8.21325
_cell_length_c                   26.8744
_cell_angle_alpha                90.0
_cell_angle_beta                 90.0
_cell_angle_gamma                90.0
loop_
_atom_site_label
_atom_site_type_symbol
_atom_site_fract_x
_atom_site_fract_y
_atom_site_fract_z
     1  S          0.01493000       0.90842000       0.45496170
     2  S          0.51493000       0.59158000       0.54503830
     3  S         -0.01493000       0.40842000       0.04503830
     4  S          0.48507000       0.09158000       0.95496170
     5  C          0.24559000       0.45935000       0.41913000
     6  C          0.74559000       0.04065000       0.58087000
     7  C          0.75441000       0.95935000       0.08087000
     8  C          0.25441000       0.54065000       0.91913000
     9  C          0.23599000       0.43526000       0.36343000
    10  C          0.73599000       0.06474000       0.63657000
    11  C          0.76401000       0.93526000       0.13657000
    12  C          0.26401000       0.56474000       0.86343000
    13  C          0.45911000       0.51345000       0.33544000
    14  C          0.95911000      -0.01345000       0.66456000
    15  C          0.54089000       0.01345000       0.16456000
    16  C          0.04089000       0.48655000       0.83544000
    17  C          0.43869000       0.69435000       0.34224000
    18  C          0.93869000       0.80565000       0.65776000
    19  C          0.56131000       0.19435000       0.15776000
    20  C          0.06131000       0.30565000       0.84224000
    21  C         -0.00888000       0.43955000       0.44343000
    22  C          0.49112000       0.06045000       0.55657000
    23  C          0.00888000       0.93955000       0.05657000
    24  C          0.50888000       0.56045000       0.94343000
    25  C          0.60159000       0.92765000       0.38823000
    26  C          0.10159000       0.57235000       0.61177000
    27  C          0.39841000       0.42765000       0.11177000
    28  C          0.89841000       0.07235000       0.88823000
    29  C          0.68169000       0.93307000       0.44253000
    30  C          0.18169000       0.56693000       0.55747000
    31  C          0.31831000       0.43307000       0.05747000
    32  C          0.81831000       0.06693000       0.94253000
    33  C          0.73891000       0.05885000       0.35873000
    34  C          0.23891000       0.44115000       0.64127000
    35  C          0.26109000       0.55885000       0.14127000
    36  C          0.76109000       0.94115000       0.85873000
    37  C          0.91331000       0.13367000       0.28014000
    38  C          0.41331000       0.36633000       0.71986000
    39  C          0.08669000       0.63367000       0.21986000
    40  C          0.58669000       0.86633000       0.78014000
    41  C          0.18909000       0.15176000       0.27024000
    42  C          0.68909000       0.34824000       0.72976000
    43  C          0.81091000       0.65176000       0.22976000
    44  C          0.31091000       0.84824000       0.77024000
    45  N          0.42699000       0.34416000       0.44134000
    46  N          0.92699000       0.15584000       0.55866000
    47  N          0.57301000       0.84416000       0.05866000
    48  N          0.07301000       0.65584000       0.94134000
    49  N          0.62588000       0.76504000       0.36793000
    50  N          0.12588000       0.73496000       0.63207000
    51  N          0.37412000       0.26504000       0.13207000
    52  N          0.87412000       0.23496000       0.86793000
    53  N          0.84949000       0.01535000       0.31783000
    54  N          0.34949000       0.48465000       0.68217000
    55  N          0.15051000       0.51535000       0.18217000
    56  N          0.65051000      -0.01535000       0.81783000
    57  O          0.95932000       0.31965000       0.47143000
    58  O          0.45932000       0.18035000       0.52857000
    59  O          0.04068000       0.81965000       0.02857000
    60  O          0.54068000       0.68035000       0.97143000
    61  O          0.83243000       0.54755000       0.43464000
    62  O          0.33243000       0.95245000       0.56536000
    63  O          0.16757000       0.04755000       0.06536000
    64  O          0.66757000       0.45245000       0.93464000
    65  O          0.25158000       0.76864000       0.32793000
    66  O          0.75158000       0.73136000       0.67207000
    67  O          0.74842000       0.26864000       0.17207000
    68  O          0.24842000       0.23136000       0.82793000
    69  O          0.73351000       0.20164000       0.37333000
    70  O          0.23351000       0.29836000       0.62667000
    71  O          0.26649000       0.70164000       0.12667000
    72  O          0.76649000       0.79836000       0.87333000
    73  O          0.27089000       0.26615000       0.24764000
    74  O          0.77089000       0.23385000       0.75236000
    75  O          0.72911000       0.76615000       0.25236000
    76  O          0.22911000       0.73385000       0.74764000
    77  O          0.33918000       0.03706000       0.28464000
    78  O          0.83918000       0.46294000       0.71536000
    79  O          0.66082000       0.53706000       0.21536000
    80  O          0.16082000       0.96294000       0.78464000
    81  H          0.06060000       0.04910000       0.44730000
    82  H          0.56060000       0.45090000       0.55270000
    83  H          0.93940000       0.54910000       0.05270000
    84  H          0.43940000       0.95090000       0.94730000
    85  H          0.28720000       0.56140000       0.42810000
    86  H          0.78720000       0.93860000       0.57190000
    87  H          0.71280000       0.06140000       0.07190000
    88  H          0.21280000       0.43860000       0.92810000
    89  H          0.42990000       0.35520000       0.47420000
    90  H          0.92990000       0.14480000       0.52580000
    91  H          0.57010000       0.85520000       0.02580000
    92  H          0.07010000       0.64480000       0.97420000
    93  H          0.58020000       0.35860000       0.42870000
    94  H          0.08020000       0.14140000       0.57130000
    95  H          0.41980000       0.85860000       0.07130000
    96  H          0.91980000       0.64140000       0.92870000
    97  H          0.37590000       0.24360000       0.43410000
    98  H          0.87590000       0.25640000       0.56590000
    99  H          0.62410000       0.74360000       0.06590000
   100  H          0.12410000       0.75640000       0.93410000
   101  H          0.08060000       0.48300000       0.35110000
   102  H          0.58060000       0.01700000       0.64890000
   103  H          0.91940000       0.98300000       0.14890000
   104  H          0.41940000       0.51700000       0.85110000
   105  H          0.23590000       0.31920000       0.35660000
   106  H          0.73590000       0.18080000       0.64340000
   107  H          0.76410000       0.81920000       0.14340000
   108  H          0.26410000       0.68080000       0.85660000
   109  H          0.76480000       0.71280000       0.37210000
   110  H          0.26480000       0.78720000       0.62790000
   111  H          0.23520000       0.21280000       0.12790000
   112  H          0.73520000       0.28720000       0.87210000
   113  H          0.61800000       0.47410000       0.34870000
   114  H          0.11800000       0.02590000       0.65130000
   115  H          0.38200000       0.97410000       0.15130000
   116  H          0.88200000       0.52590000       0.84870000
   117  H          0.44820000       0.48670000       0.30030000
   118  H          0.94820000       0.01330000       0.69970000
   119  H          0.55180000      -0.01330000       0.19970000
   120  H          0.05180000       0.51330000       0.80030000
   121  H          0.88560000       0.91440000       0.31300000
   122  H          0.38560000       0.58560000       0.68700000
   123  H          0.11440000       0.41440000       0.18700000
   124  H          0.61440000       0.08560000       0.81300000
   125  H          0.42170000       0.95490000       0.38730000
   126  H          0.92170000       0.54510000       0.61270000
   127  H          0.57830000       0.45490000       0.11270000
   128  H          0.07830000       0.04510000       0.88730000
   129  H          0.63030000       0.03760000       0.45590000
   130  H          0.13030000       0.46240000       0.54410000
   131  H          0.36970000       0.53760000       0.04410000
   132  H          0.86970000       0.96240000       0.95590000
   133  H          0.59310000       0.84670000       0.45990000
   134  H          0.09310000       0.65330000       0.54010000
   135  H          0.40690000       0.34670000       0.04010000
   136  H          0.90690000       0.15330000       0.95990000
   137  H          0.84900000       0.23860000       0.29070000
   138  H          0.34900000       0.26140000       0.70930000
   139  H          0.15100000       0.73860000       0.20930000
   140  H          0.65100000       0.76140000       0.79070000
   141  H          0.83110000       0.10160000       0.24940000
   142  H          0.33110000       0.39840000       0.75060000
   143  H          0.16890000       0.60160000       0.25060000
   144  H          0.66890000       0.89840000       0.74940000
   145  H          0.25640000       0.95240000       0.28320000
   146  H          0.75640000       0.54760000       0.71680000
   147  H          0.74360000       0.45240000       0.21680000
   148  H          0.24360000       0.04760000       0.78320000
