data_GLUTAS02
_symmetry_space_group_name_H-M    'P1'
_symmetry_Int_Tables_number       1
loop_
_symmetry_equiv_pos_site_id
_symmetry_equiv_pos_as_xyz
1 x,y,z
_cell_length_a                   5.6222
_cell_length_b                   8.7813
_cell_length_c                   28.0231
_cell_angle_alpha                90.0
_cell_angle_beta                 90.0
_cell_angle_gamma                90.0
loop_
_atom_site_label
_atom_site_type_symbol
_atom_site_fract_x
_atom_site_fract_y
_atom_site_fract_z
     1  S          0.04753000       0.89482000       0.45991000
     2  S          0.54753000       0.60518000       0.54009000
     3  S          0.95247000       0.39482000       0.04009000
     4  S          0.45247000       0.10518000       0.95991000
     5  O          0.10486000       0.29084000       0.46731000
     6  O          0.60486000       0.20916000       0.53269000
     7  O          0.89514000       0.79084000       0.03269000
     8  O          0.39514000       0.70916000       0.96731000
     9  O          0.95924000       0.50314000       0.43371000
    10  O          0.45924000      -0.00314000       0.56629000
    11  O          0.04076000       0.00314000       0.06629000
    12  O          0.54076000       0.49686000       0.93371000
    13  O          0.42546000       0.74884000       0.32181000
    14  O          0.92546000       0.75116000       0.67819000
    15  O          0.57454000       0.24884000       0.17819000
    16  O          0.07454000       0.25116000       0.82181000
    17  O          0.76957000       0.14794000       0.37371000
    18  O          0.26957000       0.35206000       0.62629000
    19  O          0.23043000       0.64794000       0.12629000
    20  O          0.73043000       0.85206000       0.87371000
    21  O          0.08008000       0.18856000       0.22712000
    22  O          0.58008000       0.31144000       0.77288000
    23  O          0.91992000       0.68856000       0.27288000
    24  O          0.41992000       0.81144000       0.72712000
    25  O          0.73278000       0.12126000       0.25661000
    26  O          0.23278000       0.37874000       0.74339000
    27  O          0.26722000       0.62126000       0.24339000
    28  O          0.76722000       0.87874000       0.75661000
    29  N          0.54918000       0.34185000       0.44011000
    30  N          0.04918000       0.15815000       0.55989000
    31  N          0.45082000       0.84185000       0.05989000
    32  N          0.95082000       0.65815000       0.94011000
    33  N          0.70207000       0.73485000       0.37941000
    34  N          0.20207000       0.76515000       0.62059000
    35  N          0.29793000       0.23485000       0.12059000
    36  N          0.79793000       0.26515000       0.87941000
    37  N          0.93849000       0.95995000       0.33021000
    38  N          0.43849000       0.54005000       0.66979000
    39  N          0.06151000       0.45995000       0.16979000
    40  N          0.56151000       0.04005000       0.83021000
    41  C          0.36229000       0.44435000       0.41962000
    42  C          0.86229000       0.05565000       0.58038000
    43  C          0.63771000       0.94435000       0.08038000
    44  C          0.13771000       0.55565000       0.91962000
    45  C          0.35911000       0.42976000       0.36552000
    46  C          0.85911000       0.07024000       0.63448000
    47  C          0.64089000       0.92976000       0.13448000
    48  C          0.14089000       0.57024000       0.86552000
    49  C          0.57681000       0.49976000       0.34012000
    50  C          0.07681000       0.00024000       0.65988000
    51  C          0.42319000      -0.00024000       0.15988000
    52  C          0.92319000       0.50024000       0.84012000
    53  C          0.56411000       0.67125000       0.34552000
    54  C          0.06411000       0.82875000       0.65448000
    55  C          0.43589000       0.17125000       0.15448000
    56  C          0.93589000       0.32875000       0.84552000
    57  C          0.12128000       0.40656000       0.44222000
    58  C          0.62128000       0.09344000       0.55778000
    59  C          0.87872000       0.90656000       0.05778000
    60  C          0.37872000       0.59344000       0.94222000
    61  C          0.66679000       0.89197000       0.39412000
    62  C          0.16679000       0.60803000       0.60588000
    63  C          0.33321000       0.39197000       0.10588000
    64  C          0.83321000       0.10803000       0.89412000
    65  C          0.73111000       0.91077000       0.44682000
    66  C          0.23111000       0.58923000       0.55318000
    67  C          0.26889000       0.41077000       0.05318000
    68  C          0.76889000       0.08923000       0.94682000
    69  C          0.79779000       0.01036000       0.36462000
    70  C          0.29779000       0.48964000       0.63538000
    71  C          0.20221000       0.51036000       0.13538000
    72  C          0.70221000      -0.01036000       0.86462000
    73  C          0.08071000       0.06336000       0.30162000
    74  C          0.58071000       0.43664000       0.69838000
    75  C          0.91929000       0.56336000       0.19838000
    76  C          0.41929000       0.93664000       0.80162000
    77  C          0.96471100       0.12936000       0.25782000
    78  C          0.46471100       0.37064000       0.74218000
    79  C          0.03528900       0.62936000       0.24218000
    80  C          0.53528900       0.87064000       0.75782000
    81  H          0.09390000       0.02860000       0.45420000
    82  H          0.59390000       0.47140000       0.54580000
    83  H          0.90610000       0.52860000       0.04580000
    84  H          0.40610000       0.97140000       0.95420000
    85  H          0.70211000       0.14480000       0.22920000
    86  H          0.20211000       0.35520000       0.77080000
    87  H          0.29789000       0.64480000       0.27080000
    88  H          0.79789000       0.85520000       0.72920000
    89  H          0.65610000       0.39870000       0.44520000
    90  H          0.15610000       0.10130000       0.55480000
    91  H          0.34390000       0.89870000       0.05480000
    92  H          0.84390000       0.60130000       0.94520000
    93  H          0.58010000       0.25060000       0.42420000
    94  H          0.08010000       0.24940000       0.57580000
    95  H          0.41990000       0.75060000       0.07580000
    96  H          0.91990000       0.74940000       0.92420000
    97  H          0.51210000       0.30460000       0.46720000
    98  H          0.01210000       0.19540000       0.53280000
    99  H          0.48790000       0.80460000       0.03280000
   100  H         -0.01210000       0.69540000       0.96720000
   101  H          0.80090000       0.68460000       0.39420000
   102  H          0.30090000       0.81540000       0.60580000
   103  H          0.19910000       0.18460000       0.10580000
   104  H          0.69910000       0.31540000       0.89420000
   105  H          0.95910000       0.85960000       0.32520000
   106  H          0.45910000       0.64040000       0.67480000
   107  H          0.04090000       0.35960000       0.17480000
   108  H          0.54090000       0.14040000       0.82520000
   109  H          0.39390000       0.55250000       0.43210000
   110  H          0.89390000       0.94750000       0.56790000
   111  H          0.60610000       0.05250000       0.06790000
   112  H          0.10610000       0.44750000       0.93210000
   113  H          0.20890000       0.47060000       0.35320000
   114  H          0.70890000       0.02940000       0.64680000
   115  H          0.79110000       0.97060000       0.14680000
   116  H          0.29110000       0.52940000       0.85320000
   117  H          0.34990000       0.32460000       0.36020000
   118  H          0.84990000       0.17540000       0.63980000
   119  H          0.65010000       0.82460000       0.13980000
   120  H          0.15010000       0.67540000       0.86020000
   121  H          0.55890000       0.47450000       0.30510000
   122  H          0.05890000       0.02550000       0.69490000
   123  H          0.44110000       0.97450000       0.19490000
   124  H          0.94110000       0.52550000       0.80510000
   125  H          0.72790000       0.45860000       0.35620000
   126  H          0.22790000       0.04140000       0.64380000
   127  H          0.27210000       0.95860000       0.14380000
   128  H          0.77210000       0.54140000       0.85620000
   129  H          0.52290000       0.90860000       0.39120000
   130  H          0.02290000       0.59140000       0.60880000
   131  H          0.47710000       0.40860000       0.10880000
   132  H         -0.02290000       0.09140000       0.89120000
   133  H          0.65390000       0.81050000       0.46020000
   134  H          0.15390000       0.68950000       0.53980000
   135  H          0.34610000       0.31050000       0.03980000
   136  H          0.84610000       0.18950000       0.96020000
   137  H          0.68690000       0.01760000       0.45720000
   138  H          0.18690000       0.48240000       0.54280000
   139  H          0.31310000       0.51760000       0.04280000
   140  H          0.81310000       0.98240000       0.95720000
   141  H          0.21790000       0.01760000       0.29220000
   142  H          0.71790000       0.48240000       0.70780000
   143  H          0.78210000       0.51760000       0.20780000
   144  H          0.28210000       0.98240000       0.79220000
   145  H          0.12090000       0.16450000       0.32220000
   146  H          0.62090000       0.33550000       0.67780000
   147  H          0.87910000       0.66450000       0.17780000
   148  H          0.37910000       0.83550000       0.82220000
