data_GLUTAS05
_symmetry_space_group_name_H-M    'P1'
_symmetry_Int_Tables_number       1
loop_
_symmetry_equiv_pos_site_id
_symmetry_equiv_pos_as_xyz
1 x,y,z
_cell_length_a                   5.27482
_cell_length_b                   8.34593
_cell_length_c                   25.4963
_cell_angle_alpha                90.0
_cell_angle_beta                 90.0
_cell_angle_gamma                90.0
loop_
_atom_site_label
_atom_site_type_symbol
_atom_site_fract_x
_atom_site_fract_y
_atom_site_fract_z
     1  S          0.14302000       0.86503160       0.45135130
     2  S          0.64302000       0.63496840       0.54864870
     3  S          0.85698000       0.36503160       0.04864870
     4  S          0.35698000       0.13496840       0.95135130
     5  C          0.24957000       0.44145000       0.41703000
     6  C          0.74957000       0.05855000       0.58297000
     7  C          0.75043000       0.94145000       0.08297000
     8  C          0.25043000       0.55855000       0.91703000
     9  C          0.22297000       0.48775000       0.36013000
    10  C          0.72297000       0.01225000       0.63987000
    11  C          0.77703000      -0.01225000       0.13987000
    12  C          0.27703000       0.51225000       0.86013000
    13  C          0.47168000       0.54754000       0.33513000
    14  C          0.97168000       0.95246000       0.66487000
    15  C          0.52832000       0.04754000       0.16487000
    16  C          0.02832000       0.45246000       0.83513000
    17  C          0.49448000       0.72234000       0.34653000
    18  C         -0.00552000       0.77766000       0.65347000
    19  C          0.50552000       0.22234000       0.15347000
    20  C          0.00552000       0.27766000       0.84653000
    21  C         -0.00027000       0.41955000       0.44573000
    22  C          0.49973000       0.08045000       0.55427000
    23  C          0.00027000       0.91955000       0.05427000
    24  C          0.50027000       0.58045000       0.94573000
    25  C          0.70677000       0.93534000       0.39523000
    26  C          0.20677000       0.56466000       0.60477000
    27  C          0.29323000       0.43534000       0.10477000
    28  C          0.79323000       0.06466000       0.89523000
    29  C          0.82078000       0.94125000       0.44943000
    30  C          0.32078000       0.55875000       0.55057000
    31  C          0.17922000       0.44125000       0.05057000
    32  C          0.67922000       0.05875000       0.94943000
    33  C          0.84148000       0.04864000       0.35803000
    34  C          0.34148000       0.45136000       0.64197000
    35  C          0.15852000       0.54864000       0.14197000
    36  C          0.65852000       0.95136000       0.85803000
    37  C         -0.01722000       0.10045000       0.27023000
    38  C          0.48278000       0.39955000       0.72977000
    39  C          0.01722000       0.60045000       0.22977000
    40  C          0.51722000       0.89955000       0.77023000
    41  C          0.24097000       0.17115000       0.27893000
    42  C          0.74097000       0.32885000       0.72107000
    43  C          0.75903000       0.67115000       0.22107000
    44  C          0.25903000       0.82885000       0.77893000
    45  N          0.39377000       0.28674000       0.42243000
    46  N          0.89377000       0.21326000       0.57757000
    47  N          0.60623000       0.78674000       0.07757000
    48  N          0.10623000       0.71326000       0.92243000
    49  N          0.68746000       0.76954000       0.37713000
    50  N          0.18746000       0.73046000       0.62287000
    51  N          0.31254000       0.26954000       0.12287000
    52  N          0.81254000       0.23046000       0.87713000
    53  N          0.89876000      -0.00466000       0.31143000
    54  N          0.39876000       0.50466000       0.68857000
    55  N          0.10124000       0.49534000       0.18857000
    56  N          0.60124000       0.00466000       0.81143000
    57  O         -0.00656000       0.31394000       0.48043000
    58  O          0.49344000       0.18606000       0.51957000
    59  O          0.00656000       0.81394000       0.01957000
    60  O          0.50656000       0.68606000       0.98043000
    61  O          0.82105000       0.51173000       0.43303000
    62  O          0.32105000      -0.01173000       0.56697000
    63  O          0.17895000       0.01173000       0.06697000
    64  O          0.67895000       0.48827000       0.93303000
    65  O          0.33246000       0.81363000       0.32953000
    66  O          0.83246000       0.68637000       0.67047000
    67  O          0.66754000       0.31363000       0.17047000
    68  O          0.16754000       0.18637000       0.82953000
    69  O          0.87746000       0.18983000       0.37163000
    70  O          0.37746000       0.31017000       0.62837000
    71  O          0.12254000       0.68983000       0.12837000
    72  O          0.62254000       0.81017000       0.87163000
    73  O          0.31077000       0.28693000       0.25533000
    74  O          0.81077000       0.21307000       0.74467000
    75  O          0.68923000       0.78693000       0.24467000
    76  O          0.18923000       0.71307000       0.75533000
    77  O          0.38556000       0.10313000       0.31383000
    78  O          0.88556000       0.39687000       0.68617000
    79  O          0.61444000       0.60313000       0.18617000
    80  O          0.11444000       0.89687000       0.81383000
    81  H          0.23630000       0.94190000       0.48600000
    82  H          0.73630000       0.55810000       0.51400000
    83  H          0.76370000       0.44190000       0.01400000
    84  H          0.26370000       0.05810000       0.98600000
    85  H          0.38150000       0.00420000       0.31390000
    86  H          0.88150000       0.49580000       0.68610000
    87  H          0.61850000       0.50420000       0.18610000
    88  H          0.11850000      -0.00420000       0.81390000
    89  H          0.34600000       0.52570000       0.43490000
    90  H          0.84600000       0.97430000       0.56510000
    91  H          0.65400000       0.02570000       0.06510000
    92  H          0.15400000       0.47430000       0.93490000
    93  H          0.53250000       0.97480000       0.39860000
    94  H          0.03250000       0.52520000       0.60140000
    95  H          0.46750000       0.47480000       0.10140000
    96  H          0.96750000       0.02520000       0.89860000
    97  H          0.09750000       0.57230000       0.35740000
    98  H          0.59750000       0.92770000       0.64260000
    99  H          0.90250000       0.07230000       0.14260000
   100  H          0.40250000       0.42770000       0.85740000
   101  H          0.16520000       0.39460000       0.34070000
   102  H          0.66520000       0.10540000       0.65930000
   103  H          0.83480000       0.89460000       0.15930000
   104  H          0.33480000       0.60540000       0.84070000
   105  H          0.61400000       0.49060000       0.35030000
   106  H          0.11400000       0.00940000       0.64970000
   107  H          0.38600000      -0.00940000       0.14970000
   108  H          0.88600000       0.50940000       0.85030000
   109  H          0.46870000       0.52970000       0.29750000
   110  H          0.96870000       0.97030000       0.70250000
   111  H          0.53130000       0.02970000       0.20250000
   112  H          0.03130000       0.47030000       0.79750000
   113  H          0.82100000       0.05150000       0.46150000
   114  H          0.32100000       0.44850000       0.53850000
   115  H          0.17900000       0.55150000       0.03850000
   116  H          0.67900000       0.94850000       0.96150000
   117  H          0.71750000       0.87660000       0.47280000
   118  H          0.21750000       0.62340000       0.52720000
   119  H          0.28250000       0.37660000       0.02720000
   120  H          0.78250000       0.12340000       0.97280000
   121  H          0.86210000       0.18770000       0.26730000
   122  H          0.36210000       0.31230000       0.73270000
   123  H          0.13790000       0.68770000       0.23270000
   124  H          0.63790000       0.81230000       0.76730000
   125  H         -0.01470000       0.04020000       0.23760000
   126  H          0.48530000       0.45980000       0.76240000
   127  H          0.01470000       0.54020000       0.26240000
   128  H          0.51470000       0.95980000       0.73760000
   129  H          0.38230000       0.24890000       0.45510000
   130  H          0.88230000       0.25110000       0.54490000
   131  H          0.61770000       0.74890000       0.04490000
   132  H          0.11770000       0.75110000       0.95510000
   133  H          0.55690000       0.30110000       0.41490000
   134  H          0.05690000       0.19890000       0.58510000
   135  H          0.44310000       0.80110000       0.08510000
   136  H          0.94310000       0.69890000       0.91490000
   137  H          0.32380000       0.21680000       0.40030000
   138  H          0.82380000       0.28320000       0.59970000
   139  H          0.67620000       0.71680000       0.09970000
   140  H          0.17620000       0.78320000       0.90030000
   141  H          0.80240000       0.70160000       0.38600000
   142  H          0.30240000       0.79840000       0.61400000
   143  H          0.19760000       0.20160000       0.11400000
   144  H          0.69760000       0.29840000       0.88600000
   145  H          0.88650000       0.89420000       0.30530000
   146  H          0.38650000       0.60580000       0.69470000
   147  H          0.11350000       0.39420000       0.19470000
   148  H          0.61350000       0.10580000       0.80530000
