data_GLYCIN
_symmetry_space_group_name_H-M    'P1'
_symmetry_Int_Tables_number       1
loop_
_symmetry_equiv_pos_site_id
_symmetry_equiv_pos_as_xyz
1 x,y,z
_cell_length_a                   5.077
_cell_length_b                   6.268
_cell_length_c                   5.38
_cell_angle_alpha                90.0
_cell_angle_beta                 113.2
_cell_angle_gamma                90.0
loop_
_atom_site_label
_atom_site_type_symbol
_atom_site_fract_x
_atom_site_fract_y
_atom_site_fract_z
     1  C          0.13780000       0.05320000       0.06330000
     2  C          0.86220000       0.55320000       0.93670000
     3  C          0.11450000       0.07190000       0.77350000
     4  C          0.88550000       0.57190000       0.22650000
     5  H          0.54000000       0.01200000       0.86500000
     6  H          0.46000000       0.51200000       0.13500000
     7  H          0.34000000       0.96900000       0.55100000
     8  H          0.66000000       0.46900000       0.44900000
     9  H          0.33700000       0.79700000       0.78400000
    10  H          0.66300000       0.29700000       0.21600000
    11  H          0.12500000       0.24100000       0.72600000
    12  H          0.87500000       0.74100000       0.27400000
    13  H          0.90900000       0.00800000       0.63800000
    14  H          0.09100000       0.50800000       0.36200000
    15  N          0.35220000       0.95600000       0.73810000
    16  N          0.64780000       0.45600000       0.26190000
    17  O          0.37720000       0.02700000       0.24200000
    18  O          0.62280000       0.52700000       0.75800000
    19  O          0.91040000       0.07730000       0.09700000
    20  O          0.08960000       0.57730000       0.90300000
