data_GLYCIN67
_symmetry_space_group_name_H-M    'P1'
_symmetry_Int_Tables_number       1
loop_
_symmetry_equiv_pos_site_id
_symmetry_equiv_pos_as_xyz
1 x,y,z
_cell_length_a                   11.1564
_cell_length_b                   5.864411
_cell_length_c                   5.341717
_cell_angle_alpha                90.0
_cell_angle_beta                 125.834
_cell_angle_gamma                90.0
loop_
_atom_site_label
_atom_site_type_symbol
_atom_site_fract_x
_atom_site_fract_y
_atom_site_fract_z
     1  O          0.72297000       0.84237000       0.83211100
     2  O          0.77703000       0.34237000       0.16788900
     3  O          0.27703000       0.15763000       0.16788900
     4  O          0.22297000       0.65763000       0.83211100
     5  O          0.96458000       0.77628000       0.17841100
     6  O          0.53542000       0.27628000       0.82158900
     7  O          0.03542000       0.22372000       0.82158900
     8  O          0.46458000       0.72372000       0.17841100
     9  C          0.83587000       0.80891000       0.10241000
    10  C          0.66413000       0.30891000       0.89759000
    11  C          0.16413000       0.19109000       0.89759000
    12  C          0.33587000       0.69109000       0.10241000
    13  C          0.81598000       0.82321000       0.35881400
    14  C          0.68402000       0.32321000       0.64118600
    15  C          0.18402000       0.17679000       0.64118600
    16  C          0.31598000       0.67679000       0.35881400
    17  N          0.93049000       0.69069000       0.63161300
    18  N          0.56951000       0.19069000       0.36838700
    19  N          0.06951000       0.30931000       0.36838700
    20  N          0.43049000       0.80931000       0.63161300
    21  H          0.82240000      -0.01840000       0.41810000
    22  H          0.67760000       0.48160000       0.58190000
    23  H          0.17760000       0.01840000       0.58190000
    24  H          0.32240000       0.51840000       0.41810000
    25  H          0.71930000       0.76340000       0.28440000
    26  H          0.78070000       0.26340000       0.71560000
    27  H          0.28070000       0.23660000       0.71560000
    28  H          0.21930000       0.73660000       0.28440000
    29  H          0.91610000       0.70190000       0.77860000
    30  H          0.58390000       0.20190000       0.22140000
    31  H          0.08390000       0.29810000       0.22140000
    32  H          0.41610000       0.79810000       0.77860000
    33  H          0.01930000       0.74510000       0.70170000
    34  H          0.48070000       0.24510000       0.29830000
    35  H         -0.01930000       0.25490000       0.29830000
    36  H          0.51930000       0.75490000       0.70170000
    37  H          0.92470000       0.54490000       0.57900000
    38  H          0.57530000       0.04490000       0.42100000
    39  H          0.07530000       0.45510000       0.42100000
    40  H          0.42470000       0.95510000       0.57900000
