data_GLYCIN02
_symmetry_space_group_name_H-M    'P1'
_symmetry_Int_Tables_number       1
loop_
_symmetry_equiv_pos_site_id
_symmetry_equiv_pos_as_xyz
1 x,y,z
_cell_length_a                   5.10208
_cell_length_b                   11.970917
_cell_length_c                   5.457515
_cell_angle_alpha                90.0
_cell_angle_beta                 111.702
_cell_angle_gamma                90.0
loop_
_atom_site_label
_atom_site_type_symbol
_atom_site_fract_x
_atom_site_fract_y
_atom_site_fract_z
     1  C          0.07542000       0.12478000       0.06605000
     2  C          0.42458000       0.62478000       0.43395000
     3  C          0.92458000       0.87522000       0.93395000
     4  C          0.57542000       0.37522000       0.56605000
     5  C          0.06536000       0.14499000       0.78711000
     6  C          0.43464000       0.64499000       0.71289000
     7  C          0.93464000       0.85501000       0.21289000
     8  C          0.56536000       0.35501000       0.28711000
     9  N          0.30135000       0.08980000       0.74113000
    10  N          0.19865000       0.58980000       0.75887000
    11  N          0.69865000       0.91020000       0.25887000
    12  N          0.80135000       0.41020000       0.24113000
    13  O          0.30583000       0.09427000       0.23553000
    14  O          0.19417000       0.59427000       0.26447000
    15  O          0.69417000       0.90573000       0.76447000
    16  O          0.80583000       0.40573000       0.73553000
    17  O          0.85224000       0.14154000       0.10711000
    18  O          0.64776000       0.64154000       0.39289000
    19  O          0.14776000       0.85846000       0.89289000
    20  O          0.35224000       0.35846000       0.60711000
    21  H          0.28600000       0.10000000       0.57000000
    22  H          0.21400000       0.60000000       0.93000000
    23  H          0.71400000       0.90000000       0.43000000
    24  H          0.78600000       0.40000000       0.07000000
    25  H          0.45700000       0.11900000       0.83700000
    26  H          0.04300000       0.61900000       0.66300000
    27  H          0.54300000       0.88100000       0.16300000
    28  H          0.95700000       0.38100000       0.33700000
    29  H          0.29800000       0.02000000       0.76300000
    30  H          0.20200000       0.52000000       0.73700000
    31  H          0.70200000       0.98000000       0.23700000
    32  H          0.79800000       0.48000000       0.26300000
    33  H          0.08000000       0.22000000       0.77100000
    34  H          0.42000000       0.72000000       0.72900000
    35  H          0.92000000       0.78000000       0.22900000
    36  H          0.58000000       0.28000000       0.27100000
    37  H          0.89800000       0.11800000       0.67100000
    38  H          0.60200000       0.61800000       0.82900000
    39  H          0.10200000       0.88200000       0.32900000
    40  H          0.39800000       0.38200000       0.17100000
