data_GLYCIN18
_symmetry_space_group_name_H-M    'P1'
_symmetry_Int_Tables_number       1
loop_
_symmetry_equiv_pos_site_id
_symmetry_equiv_pos_as_xyz
1 x,y,z
_cell_length_a                   7.037
_cell_length_b                   7.037
_cell_length_c                   5.478
_cell_angle_alpha                90.0
_cell_angle_beta                 90.0
_cell_angle_gamma                120.0
loop_
_atom_site_label
_atom_site_type_symbol
_atom_site_fract_x
_atom_site_fract_y
_atom_site_fract_z
     1  C          0.26859000       0.91109000       0.87440000
     2  C          0.08891000       0.35750000       0.20773333
     3  C          0.64250000       0.73141000       0.54106667
     4  C          0.27469000       0.94159000       0.59939000
     5  C          0.05841000       0.33310000       0.93272333
     6  C          0.66690000       0.72531000       0.26605667
     7  N          0.42079000       0.11649000      -0.00122000
     8  N          0.88351000       0.30430000       0.33211333
     9  N          0.69570000       0.57921000       0.66544667
    10  O          0.12449000       0.79039000       0.47979000
    11  O          0.20961000       0.33410000       0.81312333
    12  O          0.66590000       0.87551000       0.14645667
    13  O          0.43319000       0.11209000       0.51219000
    14  O          0.88791000       0.32110000       0.84552333
    15  O          0.67890000       0.56681000       0.17885667
    16  H          0.38168600       0.21248700       0.96817900
    17  H          0.78751300       0.16919900       0.30151233
    18  H          0.83080100       0.61831400       0.63484567
    19  H          0.40418700       0.09068700       0.83217900
    20  H          0.90931300       0.31350000       0.16551233
    21  H          0.68650000       0.59581300       0.49884567
    22  H          0.13798300       0.86678200       0.93577600
    23  H          0.13321800       0.27120100       0.26910933
    24  H          0.72879900       0.86201700       0.60244267
    25  H          0.31618100       0.80087900       0.91327700
    26  H          0.19912100       0.51530200       0.24661033
    27  H          0.48469800       0.68381900       0.57994367
    28  H          0.55648300       0.16428400       0.95758400
    29  H          0.83571600       0.39219900       0.29091733
    30  H          0.60780100       0.44351700       0.62425067
