data_GLYCIN01
_symmetry_space_group_name_H-M    'P1'
_symmetry_Int_Tables_number       1
loop_
_symmetry_equiv_pos_site_id
_symmetry_equiv_pos_as_xyz
1 x,y,z
_cell_length_a                   7.037
_cell_length_b                   7.037
_cell_length_c                   5.483
_cell_angle_alpha                90.0
_cell_angle_beta                 90.0
_cell_angle_gamma                120.0
loop_
_atom_site_label
_atom_site_type_symbol
_atom_site_fract_x
_atom_site_fract_y
_atom_site_fract_z
     1  C          0.39290000       0.00120000       0.10330000
     2  C         -0.00120000       0.39170000       0.76996667
     3  C          0.60830000       0.60710000       0.43663333
     4  C          0.40100000      -0.02220000       0.37940000
     5  C          0.02220000       0.42320000       0.04606667
     6  C          0.57680000       0.59900000       0.71273333
     7  H          0.24800000       0.01300000       0.68600000
     8  H         -0.01300000       0.23500000       0.35266667
     9  H          0.76500000       0.75200000       0.01933333
    10  H          0.27400000       0.18300000       0.45800000
    11  H          0.81700000       0.09100000       0.12466667
    12  H          0.90900000       0.72600000       0.79133333
    13  H          0.08400000       0.92100000       0.44100000
    14  H          0.07900000       0.16300000       0.10766667
    15  H          0.83700000       0.91600000       0.77433333
    16  H          0.56700000       0.08900000       0.44600000
    17  H          0.91100000       0.47800000       0.11266667
    18  H          0.52200000       0.43300000       0.77933333
    19  H          0.36900000       0.81400000       0.42700000
    20  H          0.18600000       0.55500000       0.09366667
    21  H          0.44500000       0.63100000       0.76033333
    22  N          0.24140000       0.02630000       0.50350000
    23  N         -0.02630000       0.21510000       0.17016667
    24  N          0.78490000       0.75860000       0.83683333
    25  O          0.23250000       0.00830000       0.01390000
    26  O         -0.00830000       0.22420000       0.68056667
    27  O          0.77580000       0.76750000       0.34723333
    28  O          0.54250000       0.00110000      -0.01500000
    29  O         -0.00110000       0.54140000       0.65166667
    30  O          0.45860000       0.45750000       0.31833333
