data_GOTQEL02
_symmetry_space_group_name_H-M    'P1'
_symmetry_Int_Tables_number       1
loop_
_symmetry_equiv_pos_site_id
_symmetry_equiv_pos_as_xyz
1 x,y,z
_cell_length_a                   7.24873
_cell_length_b                   16.24925
_cell_length_c                   24.76559
_cell_angle_alpha                90.0
_cell_angle_beta                 90.7992
_cell_angle_gamma                90.0
loop_
_atom_site_label
_atom_site_type_symbol
_atom_site_fract_x
_atom_site_fract_y
_atom_site_fract_z
     1  Br         0.97357400       0.51337200       0.66901200
     2  Br         0.52642600       0.01337200       0.83098800
     3  Br         0.02642600       0.48662800       0.33098800
     4  Br         0.47357400       0.98662800       0.16901200
     5  S          0.16088100       0.25626400       0.48761300
     6  S          0.33911900       0.75626400       0.01238700
     7  S          0.83911900       0.74373600       0.51238700
     8  S          0.66088100       0.24373600       0.98761300
     9  S          0.07390100       0.37418500       0.46460300
    10  S          0.42609900       0.87418500       0.03539700
    11  S          0.92609900       0.62581500       0.53539700
    12  S          0.57390100       0.12581500       0.96460300
    13  N          0.33823000       0.28925130       0.52278900
    14  N          0.16177000       0.78925130       0.97721100
    15  N          0.66177000       0.71074870       0.47721100
    16  N          0.83823000       0.21074870       0.02278900
    17  N          0.24253000       0.42060140       0.49627100
    18  N          0.25747000       0.92060140       0.00372900
    19  N          0.75747000       0.57939860       0.50372900
    20  N          0.74253000       0.07939860      -0.00372900
    21  C          0.35684000       0.37051160       0.52302110
    22  C          0.14316000       0.87051160       0.97697890
    23  C          0.64316000       0.62948840       0.47697890
    24  C          0.85684000       0.12948840       0.02302110
    25  C          0.50954000       0.40707160       0.55556110
    26  C         -0.00954000       0.90707160       0.94443890
    27  C          0.49046000       0.59292840       0.44443890
    28  C          0.00954000       0.09292840       0.05556110
    29  C          0.68204000       0.37060160       0.55964110
    30  C          0.81796000       0.87060160       0.94035890
    31  C          0.31796000       0.62939840       0.44035890
    32  C          0.18204000       0.12939840       0.05964110
    33  F          0.72022000       0.30354900       0.53011700
    34  F          0.77978000       0.80354900       0.96988300
    35  F          0.27978000       0.69645100       0.46988300
    36  F          0.22022000       0.19645100       0.03011700
    37  C          0.81844000       0.40139170       0.59284110
    38  C          0.68156000       0.90139170       0.90715890
    39  C          0.18156000       0.59860830       0.40715890
    40  C          0.31844000       0.09860830       0.09284110
    41  F         -0.01788000       0.36194100       0.59561700
    42  F          0.51788000       0.86194100       0.90438300
    43  F          0.01788000       0.63805900       0.40438300
    44  F          0.48212000       0.13805900       0.09561700
    45  C          0.79074000       0.47139160       0.62314110
    46  C          0.70926000       0.97139160       0.87685890
    47  C          0.20926000       0.52860840       0.37685890
    48  C          0.29074000       0.02860840       0.12314110
    49  C          0.62074000       0.50909160       0.61902110
    50  C          0.87926000       0.00909160       0.88097890
    51  C          0.37926000       0.49090840       0.38097890
    52  C          0.12074000       0.99090840       0.11902110
    53  F          0.58592000       0.57679100       0.64770700
    54  F          0.91408000       0.07679100       0.85229300
    55  F          0.41408000       0.42320900       0.35229300
    56  F          0.08592000       0.92320900       0.14770700
    57  C          0.48394000       0.47801170       0.58583110
    58  C          0.01606000       0.97801170       0.91416890
    59  C          0.51606000       0.52198830       0.41416890
    60  C         -0.01606000       0.02198830       0.08583110
    61  F          0.32192000       0.51794100       0.58399800
    62  F          0.17808000       0.01794100       0.91600200
    63  F          0.67808000       0.48205900       0.41600200
    64  F          0.82192000       0.98205900       0.08399800
    65  Br         0.82234400       0.72570200       0.75284200
    66  Br         0.67765600       0.22570200       0.74715800
    67  Br         0.17765600       0.27429800       0.24715800
    68  Br         0.32234400       0.77429800       0.25284200
    69  S          0.50572100       0.17953400       0.61247300
    70  S         -0.00572100       0.67953400       0.88752700
    71  S          0.49427900       0.82046600       0.38752700
    72  S          0.00572100       0.32046600       0.11247300
    73  S          0.57216100       0.12313400       0.53961300
    74  S          0.92783900       0.62313400       0.96038700
    75  S          0.42783900       0.87686600       0.46038700
    76  S          0.07216100       0.37686600       0.03961300
    77  N          0.57183000       0.10147130       0.64985800
    78  N          0.92817000       0.60147130       0.85014200
    79  N          0.42817000       0.89852870       0.35014200
    80  N          0.07183000       0.39852870       0.14985800
    81  N          0.64643000       0.03844130       0.56758900
    82  N          0.85357000       0.53844130       0.93241100
    83  N          0.35357000       0.96155870       0.43241100
    84  N          0.14643000       0.46155870       0.06758900
    85  C          0.63503000       0.03822150       0.62132100
    86  C          0.86497000       0.53822150       0.87867900
    87  C          0.36497000       0.96177850       0.37867900
    88  C          0.13503000       0.46177850       0.12132100
    89  C          0.69353000       0.96338150       0.65113100
    90  C          0.80647000       0.46338150       0.84886900
    91  C          0.30647000       0.03661850       0.34886900
    92  C          0.19353000       0.53661850       0.15113100
    93  C          0.77483000       0.96747150       0.70239100
    94  C          0.72517000       0.46747150       0.79760900
    95  C          0.22517000       0.03252850       0.29760900
    96  C          0.27483000       0.53252850       0.20239100
    97  F          0.81622000       0.03990900       0.72478600
    98  F          0.68378000       0.53990900       0.77521400
    99  F          0.18378000       0.96009100       0.27521400
   100  F          0.31622000       0.46009100       0.22478600
   101  C          0.81733000       0.89734170       0.73149100
   102  C          0.68267000       0.39734170       0.76850900
   103  C          0.18267000       0.10265830       0.26850900
   104  C          0.31733000       0.60265830       0.23149100
   105  F          0.89882000       0.90537100       0.78017600
   106  F          0.60118000       0.40537100       0.71982400
   107  F          0.10118000       0.09462900       0.21982400
   108  F          0.39882000       0.59462900       0.28017600
   109  C          0.77993000       0.81994160       0.71151100
   110  C          0.72007000       0.31994160       0.78848900
   111  C          0.22007000       0.18005840       0.28848900
   112  C          0.27993000       0.68005840       0.21151100
   113  C          0.70503000       0.81485150       0.65995110
   114  C          0.79497000       0.31485150       0.84004890
   115  C          0.29497000       0.18514850       0.34004890
   116  C          0.20503000       0.68514850       0.15995110
   117  F          0.66602000       0.74107900       0.63826600
   118  F          0.83398000       0.24107900       0.86173400
   119  F          0.33398000       0.25892100       0.36173400
   120  F          0.16602000       0.75892100       0.13826600
   121  C          0.66423000       0.88450150       0.63048100
   122  C          0.83577000       0.38450150       0.86951900
   123  C          0.33577000       0.11549850       0.36951900
   124  C          0.16423000       0.61549850       0.13048100
   125  F          0.58552000       0.87406900       0.58166600
   126  F          0.91448000       0.37406900       0.91833400
   127  F          0.41448000       0.12593100       0.41833400
   128  F          0.08552000       0.62593100       0.08166600
   129  Br         0.30988400       0.65897200       0.74756200
   130  Br         0.19011600       0.15897200       0.75243800
   131  Br         0.69011600       0.34102800       0.25243800
   132  Br         0.80988400       0.84102800       0.24756200
   133  S          0.09819100       0.12417400       0.60085300
   134  S          0.40180900       0.62417400       0.89914700
   135  S          0.90180900       0.87582600       0.39914700
   136  S          0.59819100       0.37582600       0.10085300
   137  S          0.17376100       0.06193400       0.53046300
   138  S          0.32623900       0.56193400       0.96953700
   139  S          0.82623900       0.93806600       0.46953700
   140  S          0.67376100       0.43806600       0.03046300
   141  N          0.12603000       0.04430130       0.64005900
   142  N          0.37397000       0.54430130       0.85994100
   143  N          0.87397000       0.95569870       0.35994100
   144  N          0.62603000       0.45569870       0.14005900
   145  N          0.21743000       0.97547130       0.56127900
   146  N          0.28257000       0.47547130       0.93872100
   147  N          0.78257000       0.02452870       0.43872100
   148  N          0.71743000       0.52452870       0.06127900
   149  C          0.18573000       0.97758150       0.61445110
   150  C          0.31427000       0.47758150       0.88554890
   151  C          0.81427000       0.02241850       0.38554890
   152  C          0.68573000       0.52241850       0.11445110
   153  C          0.21493000       0.90119150       0.64636100
   154  C          0.28507000       0.40119150       0.85363900
   155  C          0.78507000       0.09880850       0.35363900
   156  C          0.71493000       0.59880850       0.14636100
   157  C          0.25784000       0.90218160       0.70146110
   158  C          0.24216000       0.40218160       0.79853890
   159  C          0.74216000       0.09781840       0.29853890
   160  C          0.75784000       0.59781840       0.20146110
   161  F          0.27513000       0.97369900       0.72781600
   162  F          0.22487000       0.47369900       0.77218400
   163  F          0.72487000       0.02630100       0.27218400
   164  F          0.77513000       0.52630100       0.22781600
   165  C          0.28494000       0.83123160       0.73102110
   166  C          0.21506000       0.33123160       0.76897890
   167  C          0.71506000       0.16876840       0.26897890
   168  C          0.78494000       0.66876840       0.23102110
   169  F          0.32553000       0.83767100       0.78360600
   170  F          0.17447000       0.33767100       0.71639400
   171  F          0.67447000       0.16232900       0.21639400
   172  F          0.82553000       0.66232900       0.28360600
   173  C          0.27403000       0.75456150       0.70701110
   174  C          0.22597000       0.25456150       0.79298890
   175  C          0.72597000       0.24543850       0.29298890
   176  C          0.77403000       0.74543850       0.20701110
   177  C          0.23194000       0.75210150       0.65269110
   178  C          0.26806000       0.25210150       0.84730890
   179  C          0.76806000       0.24789850       0.34730890
   180  C          0.73194000       0.74789850       0.15269110
   181  F          0.21802000       0.67974900       0.62704700
   182  F          0.28198000       0.17974900       0.87295300
   183  F          0.78198000       0.32025100       0.37295300
   184  F          0.71802000       0.82025100       0.12704700
   185  C          0.20324000       0.82286160       0.62345110
   186  C          0.29676000       0.32286160       0.87654890
   187  C          0.79676000       0.17713840       0.37654890
   188  C          0.70324000       0.67713840       0.12345110
   189  F          0.16032000       0.81361900       0.57083600
   190  F          0.33968000       0.31361900       0.92916400
   191  F          0.83968000       0.18638100       0.42916400
   192  F          0.66032000       0.68638100       0.07083600
