data_GOTQEL
_symmetry_space_group_name_H-M    'P1'
_symmetry_Int_Tables_number       1
loop_
_symmetry_equiv_pos_site_id
_symmetry_equiv_pos_as_xyz
1 x,y,z
_cell_length_a                   8.2632
_cell_length_b                   20.4264
_cell_length_c                   11.5562
_cell_angle_alpha                90.0
_cell_angle_beta                 90.0
_cell_angle_gamma                90.0
loop_
_atom_site_label
_atom_site_type_symbol
_atom_site_fract_x
_atom_site_fract_y
_atom_site_fract_z
     1  Br         0.00542160       0.16845400       0.19779110
     2  Br        -0.00542160       0.83154600       0.19779110
     3  Br         0.50542160       0.33154600       0.19779110
     4  Br         0.49457840       0.66845400       0.19779110
     5  Br         0.00542160       0.66845400       0.69779110
     6  Br        -0.00542160       0.33154600       0.69779110
     7  Br         0.50542160       0.83154600       0.69779110
     8  Br         0.49457840       0.16845400       0.69779110
     9  S          0.23334000       0.50649120       0.79958000
    10  S          0.76666000       0.49350880       0.79958000
    11  S          0.73334000      -0.00649120       0.79958000
    12  S          0.26666000       0.00649120       0.79958000
    13  S          0.23334000       0.00649120       0.29958000
    14  S          0.76666000      -0.00649120       0.29958000
    15  S          0.73334000       0.49350880       0.29958000
    16  S          0.26666000       0.50649120       0.29958000
    17  S          0.30284000       0.54158140       0.96017000
    18  S          0.69716000       0.45841860       0.96017000
    19  S          0.80284000       0.95841860       0.96017000
    20  S          0.19716000       0.04158140       0.96017000
    21  S          0.30284000       0.04158140       0.46017000
    22  S          0.69716000       0.95841860       0.46017000
    23  S          0.80284000       0.45841860       0.46017000
    24  S          0.19716000       0.54158140       0.46017000
    25  N          0.17611200       0.43524000       0.85052000
    26  N          0.82388800       0.56476000       0.85052000
    27  N          0.67611200       0.06476000       0.85052000
    28  N          0.32388800       0.93524000       0.85052000
    29  N          0.17611200       0.93524000       0.35052000
    30  N          0.82388800       0.06476000       0.35052000
    31  N          0.67611200       0.56476000       0.35052000
    32  N          0.32388800       0.43524000       0.35052000
    33  N          0.25771500       0.47524000       0.03068000
    34  N          0.74228500       0.52476000       0.03068000
    35  N          0.75771500       0.02476000       0.03068000
    36  N          0.24228500       0.97524000       0.03068000
    37  N          0.25771500       0.97524000       0.53068000
    38  N          0.74228500       0.02476000       0.53068000
    39  N          0.75771500       0.52476000       0.53068000
    40  N          0.24228500       0.47524000       0.53068000
    41  F         -0.01189000       0.41933000       0.15555000
    42  F          0.01189000       0.58067000       0.15555000
    43  F          0.48811000       0.08067000       0.15555000
    44  F          0.51189000       0.91933000       0.15555000
    45  F         -0.01189000       0.91933000       0.65555000
    46  F          0.01189000       0.08067000       0.65555000
    47  F          0.48811000       0.58067000       0.65555000
    48  F          0.51189000       0.41933000       0.65555000
    49  F          0.90612000       0.30773000       0.25656000
    50  F          0.09388000       0.69227000       0.25656000
    51  F          0.40612000       0.19227000       0.25656000
    52  F          0.59388000       0.80773000       0.25656000
    53  F          0.90612000       0.80773000       0.75656000
    54  F          0.09388000       0.19227000       0.75656000
    55  F          0.40612000       0.69227000       0.75656000
    56  F          0.59388000       0.30773000       0.75656000
    57  F          0.22538000       0.19113000      -0.01195000
    58  F          0.77462000       0.80887000      -0.01195000
    59  F          0.72538000       0.30887000      -0.01195000
    60  F          0.27462000       0.69113000      -0.01195000
    61  F          0.22538000       0.69113000       0.48805000
    62  F          0.77462000       0.30887000       0.48805000
    63  F          0.72538000       0.80887000       0.48805000
    64  F          0.27462000       0.19113000       0.48805000
    65  F          0.30988000       0.30373000       0.88814000
    66  F          0.69012000       0.69627000       0.88814000
    67  F          0.80988000       0.19627000       0.88814000
    68  F          0.19012000       0.80373000       0.88814000
    69  F          0.30988000       0.80373000       0.38814000
    70  F          0.69012000       0.19627000       0.38814000
    71  F          0.80988000       0.69627000       0.38814000
    72  F          0.19012000       0.30373000       0.38814000
    73  C          0.19961200       0.42844000       0.96251000
    74  C          0.80038800       0.57156000       0.96251000
    75  C          0.69961200       0.07156000       0.96251000
    76  C          0.30038800       0.92844000       0.96251000
    77  C          0.19961200       0.92844000       0.46251000
    78  C          0.80038800       0.07156000       0.46251000
    79  C          0.69961200       0.57156000       0.46251000
    80  C          0.30038800       0.42844000       0.46251000
    81  C          0.15191200       0.36465000       0.01659000
    82  C          0.84808800       0.63535000       0.01659000
    83  C          0.65191200       0.13535000       0.01659000
    84  C          0.34808800       0.86465000       0.01659000
    85  C          0.15191200       0.86465000       0.51659000
    86  C          0.84808800       0.13535000       0.51659000
    87  C          0.65191200       0.63535000       0.51659000
    88  C          0.34808800       0.36465000       0.51659000
    89  C          0.05261300       0.36335000       0.11301000
    90  C          0.94738700       0.63665000       0.11301000
    91  C          0.55261300       0.13665000       0.11301000
    92  C          0.44738700       0.86335000       0.11301000
    93  C          0.05261300       0.86335000       0.61301000
    94  C          0.94738700       0.13665000       0.61301000
    95  C          0.55261300       0.63665000       0.61301000
    96  C          0.44738700       0.36335000       0.61301000
    97  C          0.00851400       0.30605000       0.16668000
    98  C         -0.00851400       0.69395000       0.16668000
    99  C          0.50851400       0.19395000       0.16668000
   100  C          0.49148600       0.80605000       0.16668000
   101  C          0.00851400       0.80605000       0.66668000
   102  C         -0.00851400       0.19395000       0.66668000
   103  C          0.50851400       0.69395000       0.66668000
   104  C          0.49148600       0.30605000       0.66668000
   105  C          0.06691200       0.24735000       0.12531000
   106  C          0.93308800       0.75265000       0.12531000
   107  C          0.56691200       0.25265000       0.12531000
   108  C          0.43308800       0.74735000       0.12531000
   109  C          0.06691200       0.74735000       0.62531000
   110  C          0.93308800       0.25265000       0.62531000
   111  C          0.56691200       0.75265000       0.62531000
   112  C          0.43308800       0.24735000       0.62531000
   113  C          0.16551300       0.24784000       0.03011000
   114  C          0.83448700       0.75216000       0.03011000
   115  C          0.66551300       0.25216000       0.03011000
   116  C          0.33448700       0.74784000       0.03011000
   117  C          0.16551300       0.74784000       0.53011000
   118  C          0.83448700       0.25216000       0.53011000
   119  C          0.66551300       0.75216000       0.53011000
   120  C          0.33448700       0.24784000       0.53011000
   121  C          0.20751400       0.30525000       0.97599000
   122  C          0.79248600       0.69475000       0.97599000
   123  C          0.70751400       0.19475000       0.97599000
   124  C          0.29248600       0.80525000       0.97599000
   125  C          0.20751400       0.80525000       0.47599000
   126  C          0.79248600       0.19475000       0.47599000
   127  C          0.70751400       0.69475000       0.47599000
   128  C          0.29248600       0.30525000       0.47599000
