data_GOTQEL01
_symmetry_space_group_name_H-M    'P1'
_symmetry_Int_Tables_number       1
loop_
_symmetry_equiv_pos_site_id
_symmetry_equiv_pos_as_xyz
1 x,y,z
_cell_length_a                   17.60321
_cell_length_b                   11.14395
_cell_length_c                   19.83501
_cell_angle_alpha                90.0
_cell_angle_beta                 90.0
_cell_angle_gamma                90.0
loop_
_atom_site_label
_atom_site_type_symbol
_atom_site_fract_x
_atom_site_fract_y
_atom_site_fract_z
     1  S          0.46569500       0.27596800       0.48425500
     2  S          0.03430500       0.72403200       0.98425500
     3  S          0.53430500       0.77596800       0.01574500
     4  S          0.96569500       0.22403200       0.51574500
     5  S          0.53430500       0.72403200       0.51574500
     6  S          0.96569500       0.27596800       0.01574500
     7  S          0.46569500       0.22403200       0.98425500
     8  S          0.03430500       0.77596800       0.48425500
     9  S          0.36277500       0.19345800       0.45941500
    10  S          0.13722500       0.80654200       0.95941500
    11  S          0.63722500       0.69345800       0.04058500
    12  S          0.86277500       0.30654200       0.54058500
    13  S          0.63722500       0.80654200       0.54058500
    14  S          0.86277500       0.19345800       0.04058500
    15  S          0.36277500       0.30654200       0.95941500
    16  S          0.13722500       0.69345800       0.45941500
    17  N          0.47611160       0.34022000       0.41087140
    18  N          0.02388840       0.65978000       0.91087140
    19  N          0.52388840       0.84022000       0.08912860
    20  N          0.97611160       0.15978000       0.58912860
    21  N          0.52388840       0.65978000       0.58912860
    22  N          0.97611160       0.34022000       0.08912860
    23  N          0.47611160       0.15978000       0.91087140
    24  N          0.02388840       0.84022000       0.41087140
    25  N          0.35930160       0.24993000       0.38336140
    26  N          0.14069840       0.75007000       0.88336140
    27  N          0.64069840       0.74993000       0.11663860
    28  N          0.85930160       0.25007000       0.61663860
    29  N          0.64069840       0.75007000       0.61663860
    30  N          0.85930160       0.24993000       0.11663860
    31  N          0.35930160       0.25007000       0.88336140
    32  N          0.14069840       0.74993000       0.38336140
    33  Br         0.42961200       0.51817400       0.07790200
    34  Br         0.07038800       0.48182600       0.57790200
    35  Br         0.57038800       0.01817400       0.42209800
    36  Br         0.92961200       0.98182600       0.92209800
    37  Br         0.57038800       0.48182600       0.92209800
    38  Br         0.92961200       0.51817400       0.42209800
    39  Br         0.42961200       0.98182600       0.57790200
    40  Br         0.07038800       0.01817400       0.07790200
    41  C          0.41910190       0.31653000       0.36776170
    42  C          0.08089810       0.68347000       0.86776170
    43  C          0.58089810       0.81653000       0.13223830
    44  C          0.91910190       0.18347000       0.63223830
    45  C          0.58089810       0.68347000       0.63223830
    46  C          0.91910190       0.31653000       0.13223830
    47  C          0.41910190       0.18347000       0.86776170
    48  C          0.08089810       0.81653000       0.36776170
    49  C          0.42419180       0.36383000       0.29811170
    50  C          0.07580820       0.63617000       0.79811170
    51  C          0.57580820       0.86383000       0.20188830
    52  C          0.92419180       0.13617000       0.70188830
    53  C          0.57580820       0.63617000       0.70188830
    54  C          0.92419180       0.36383000       0.20188830
    55  C          0.42419180       0.13617000       0.79811170
    56  C          0.07580820       0.86383000       0.29811170
    57  C          0.45414180       0.47643000       0.28329170
    58  C          0.04585820       0.52357000       0.78329170
    59  C          0.54585820       0.97643000       0.21670830
    60  C          0.95414180       0.02357000       0.71670830
    61  C          0.54585820       0.52357000       0.71670830
    62  C          0.95414180       0.47643000       0.21670830
    63  C          0.45414180       0.02357000       0.78329170
    64  C          0.04585820       0.97643000       0.28329170
    65  C          0.45527190       0.52113000       0.21877170
    66  C          0.04472810       0.47887000       0.71877170
    67  C          0.54472810       0.02113000       0.28122830
    68  C          0.95527190       0.97887000       0.78122830
    69  C          0.54472810       0.47887000       0.78122830
    70  C          0.95527190       0.52113000       0.28122830
    71  C          0.45527190       0.97887000       0.71877170
    72  C          0.04472810       0.02113000       0.21877170
    73  C          0.42782000       0.45583000       0.16533170
    74  C          0.07218000       0.54417000       0.66533170
    75  C          0.57218000       0.95583000       0.33466830
    76  C          0.92782000       0.04417000       0.83466830
    77  C          0.57218000       0.54417000       0.83466830
    78  C          0.92782000       0.45583000       0.33466830
    79  C          0.42782000       0.04417000       0.66533170
    80  C          0.07218000       0.95583000       0.16533170
    81  C          0.39952000       0.34333000       0.17854170
    82  C          0.10048000       0.65667000       0.67854170
    83  C          0.60048000       0.84333000       0.32145830
    84  C          0.89952000       0.15667000       0.82145830
    85  C          0.60048000       0.65667000       0.82145830
    86  C          0.89952000       0.34333000       0.32145830
    87  C          0.39952000       0.15667000       0.67854170
    88  C          0.10048000       0.84333000       0.17854170
    89  C          0.39718190       0.29863000       0.24339180
    90  C          0.10281810       0.70137000       0.74339180
    91  C          0.60281810       0.79863000       0.25660820
    92  C          0.89718190       0.20137000       0.75660820
    93  C          0.60281810       0.70137000       0.75660820
    94  C          0.89718190       0.29863000       0.25660820
    95  C          0.39718190       0.20137000       0.74339180
    96  C          0.10281810       0.79863000       0.24339180
    97  F          0.48056110       0.54731160       0.33291100
    98  F          0.01943890       0.45268840       0.83291100
    99  F          0.51943890       0.04731160       0.16708900
   100  F          0.98056110       0.95268840       0.66708900
   101  F          0.51943890       0.45268840       0.66708900
   102  F          0.98056110       0.54731160       0.16708900
   103  F          0.48056110       0.95268840       0.83291100
   104  F          0.01943890       0.04731160       0.33291100
   105  F          0.48168120       0.63284170       0.20851100
   106  F          0.01831880       0.36715830       0.70851100
   107  F          0.51831880       0.13284170       0.29148900
   108  F          0.98168120       0.86715830       0.79148900
   109  F          0.51831880       0.36715830       0.79148900
   110  F          0.98168120       0.63284170       0.29148900
   111  F          0.48168120       0.86715830       0.70851100
   112  F          0.01831880       0.13284170       0.20851100
   113  F          0.37291130       0.27457180       0.12773100
   114  F          0.12708870       0.72542820       0.62773100
   115  F          0.62708870       0.77457180       0.37226900
   116  F          0.87291130       0.22542820       0.87226900
   117  F          0.62708870       0.72542820       0.87226900
   118  F          0.87291130       0.27457180       0.37226900
   119  F          0.37291130       0.22542820       0.62773100
   120  F          0.12708870       0.77457180       0.12773100
   121  F          0.36879120       0.18812160       0.25141100
   122  F          0.13120880       0.81187840       0.75141100
   123  F          0.63120880       0.68812160       0.24858900
   124  F          0.86879120       0.31187840       0.74858900
   125  F          0.63120880       0.81187840       0.74858900
   126  F          0.86879120       0.18812160       0.24858900
   127  F          0.36879120       0.31187840       0.75141100
   128  F          0.13120880       0.68812160       0.25141100
   129  S          0.27907500       0.40643800       0.53088500
   130  S          0.22092500       0.59356200       0.03088500
   131  S          0.72092500       0.90643800       0.96911500
   132  S          0.77907500       0.09356200       0.46911500
   133  S          0.72092500       0.59356200       0.46911500
   134  S          0.77907500       0.40643800       0.96911500
   135  S          0.27907500       0.09356200       0.03088500
   136  S          0.22092500       0.90643800       0.53088500
   137  S          0.38611500       0.47654800       0.55553400
   138  S          0.11388500       0.52345200       0.05553400
   139  S          0.61388500       0.97654800       0.94446600
   140  S          0.88611500       0.02345200       0.44446600
   141  S          0.61388500       0.52345200       0.44446600
   142  S          0.88611500       0.47654800       0.94446600
   143  S          0.38611500       0.02345200       0.05553400
   144  S          0.11388500       0.97654800       0.55553400
   145  N          0.26878160       0.48913000       0.46327150
   146  N          0.23121840       0.51087000       0.96327150
   147  N          0.73121840      -0.01087000       0.03672850
   148  N          0.76878160       0.01087000       0.53672850
   149  N          0.73121840       0.51087000       0.53672850
   150  N          0.76878160       0.48913000       0.03672850
   151  N          0.26878160       0.01087000       0.96327150
   152  N          0.23121840      -0.01087000       0.46327150
   153  N          0.38844170       0.56852000       0.49154150
   154  N          0.11155830       0.43148000       0.99154150
   155  N          0.61155830       0.06852000       0.00845850
   156  N          0.88844170       0.93148000       0.50845850
   157  N          0.61155830       0.43148000       0.50845850
   158  N          0.88844170       0.56852000       0.00845850
   159  N          0.38844170       0.93148000       0.99154150
   160  N          0.11155830       0.06852000       0.49154150
   161  Br         0.34456200       0.87645400       0.19662200
   162  Br         0.15543800       0.12354600       0.69662200
   163  Br         0.65543800       0.37645400       0.30337800
   164  Br         0.84456200       0.62354600       0.80337800
   165  Br         0.65543800       0.12354600       0.80337800
   166  Br         0.84456200       0.87645400       0.30337800
   167  Br         0.34456200       0.62354600       0.69662200
   168  Br         0.15543800       0.37645400       0.19662200
   169  C          0.32693190       0.56193000       0.45205180
   170  C          0.17306810       0.43807000       0.95205180
   171  C          0.67306810       0.06193000       0.04794820
   172  C          0.82693190       0.93807000       0.54794820
   173  C          0.67306810       0.43807000       0.54794820
   174  C          0.82693190       0.56193000       0.04794820
   175  C          0.32693190       0.93807000       0.95205180
   176  C          0.17306810       0.06193000       0.45205180
   177  C          0.32515190       0.64173000       0.39203170
   178  C          0.17484810       0.35827000       0.89203170
   179  C          0.67484810       0.14173000       0.10796830
   180  C          0.82515190       0.85827000       0.60796830
   181  C          0.67484810       0.35827000       0.60796830
   182  C          0.82515190       0.64173000       0.10796830
   183  C          0.32515190       0.85827000       0.89203170
   184  C          0.17484810       0.14173000       0.39203170
   185  C          0.30009190       0.60183000       0.32969180
   186  C          0.19990810       0.39817000       0.82969180
   187  C          0.69990810       0.10183000       0.17030820
   188  C          0.80009190       0.89817000       0.67030820
   189  C          0.69990810       0.39817000       0.67030820
   190  C          0.80009190       0.60183000       0.17030820
   191  C          0.30009190       0.89817000       0.82969180
   192  C          0.19990810       0.10183000       0.32969180
   193  C          0.30482000       0.67073000       0.27254180
   194  C          0.19518000       0.32927000       0.77254180
   195  C          0.69518000       0.17073000       0.22745820
   196  C          0.80482000       0.82927000       0.72745820
   197  C          0.69518000       0.32927000       0.72745820
   198  C          0.80482000       0.67073000       0.22745820
   199  C          0.30482000       0.82927000       0.77254180
   200  C          0.19518000       0.17073000       0.27254180
   201  C          0.33422000       0.78543000       0.27513180
   202  C          0.16578000       0.21457000       0.77513180
   203  C          0.66578000       0.28543000       0.22486820
   204  C          0.83422000       0.71457000       0.72486820
   205  C          0.66578000       0.21457000       0.72486820
   206  C          0.83422000       0.78543000       0.22486820
   207  C          0.33422000       0.71457000       0.77513180
   208  C          0.16578000       0.28543000       0.27513180
   209  C          0.35762190       0.82893000       0.33722190
   210  C          0.14237810       0.17107000       0.83722190
   211  C          0.64237810       0.32893000       0.16277810
   212  C          0.85762190       0.67107000       0.66277810
   213  C          0.64237810       0.17107000       0.66277810
   214  C          0.85762190       0.82893000       0.16277810
   215  C          0.35762190       0.67107000       0.83722190
   216  C          0.14237810       0.32893000       0.33722190
   217  C          0.35250190       0.75933000       0.39412180
   218  C          0.14749810       0.24067000       0.89412180
   219  C          0.64749810       0.25933000       0.10587820
   220  C          0.85250190       0.74067000       0.60587820
   221  C          0.64749810       0.24067000       0.60587820
   222  C          0.85250190       0.75933000       0.10587820
   223  C          0.35250190       0.74067000       0.89412180
   224  C          0.14749810       0.25933000       0.39412180
   225  F          0.27373110       0.48911160       0.32266100
   226  F          0.22626890       0.51088840       0.82266100
   227  F          0.72626890      -0.01088840       0.17733900
   228  F          0.77373110       0.01088840       0.67733900
   229  F          0.72626890       0.51088840       0.67733900
   230  F          0.77373110       0.48911160       0.17733900
   231  F          0.27373110       0.01088840       0.82266100
   232  F          0.22626890      -0.01088840       0.32266100
   233  F          0.28309120       0.62372180       0.21314100
   234  F          0.21690880       0.37627820       0.71314100
   235  F          0.71690880       0.12372180       0.28685900
   236  F          0.78309120       0.87627820       0.78685900
   237  F          0.71690880       0.37627820       0.78685900
   238  F          0.78309120       0.62372180       0.28685900
   239  F          0.28309120       0.87627820       0.71314100
   240  F          0.21690880       0.12372180       0.21314100
   241  F          0.38576120       0.94051170       0.34260110
   242  F          0.11423880       0.05948830       0.84260110
   243  F          0.61423880       0.44051170       0.15739890
   244  F          0.88576120       0.55948830       0.65739890
   245  F          0.61423880       0.05948830       0.65739890
   246  F          0.88576120       0.94051170       0.15739890
   247  F          0.38576120       0.55948830       0.84260110
   248  F          0.11423880       0.44051170       0.34260110
   249  F          0.37523120       0.80748170       0.45298100
   250  F          0.12476880       0.19251830       0.95298100
   251  F          0.62476880       0.30748170       0.04701900
   252  F          0.87523120       0.69251830       0.54701900
   253  F          0.62476880       0.19251830       0.54701900
   254  F          0.87523120       0.80748170       0.04701900
   255  F          0.37523120       0.69251830       0.95298100
   256  F          0.12476880       0.30748170       0.45298100
