data_GRISFL14
_symmetry_space_group_name_H-M    'P1'
_symmetry_Int_Tables_number       1
loop_
_symmetry_equiv_pos_site_id
_symmetry_equiv_pos_as_xyz
1 x,y,z
_cell_length_a                   11.176001
_cell_length_b                   11.863301
_cell_length_c                   12.643501
_cell_angle_alpha                79.84401
_cell_angle_beta                 89.18801
_cell_angle_gamma                83.78601
loop_
_atom_site_label
_atom_site_type_symbol
_atom_site_fract_x
_atom_site_fract_y
_atom_site_fract_z
     1  Cl         0.78791500       0.58995500       0.67023500
     2  O          0.65366150       0.46014140       0.53323130
     3  O          0.70882170       0.82863150       0.60315150
     4  O          0.46439160       0.36039160       0.60868150
     5  O          0.41223160       0.77464150       0.34531140
     6  O          0.53616180       0.10285160       0.36252160
     7  O          0.42025160       0.51368160       0.33705150
     8  C          0.58382000       0.41462000       0.45722190
     9  C          0.50162000       0.73812000       0.41822000
    10  C          0.51172000       0.32462000       0.52002000
    11  C          0.62582000       0.57642000       0.51725190
    12  C          0.55972000       0.81182000       0.46982000
    13  H          0.53936900       0.89100600       0.45325700
    14  C          0.49882000       0.52032000       0.40024190
    15  C          0.68793000       0.95242000       0.57792000
    16  H          0.70775800       0.97783300       0.50405000
    17  H          0.73731700       0.98527200       0.62330100
    18  H          0.60469000       0.97645700       0.58952500
    19  C          0.64902000       0.76522000       0.54692000
    20  C          0.53612000       0.61882000       0.44092000
    21  C          0.49592000       0.22562000       0.48782000
    22  H          0.44985800       0.17420600       0.52987300
    23  C          0.61622000       0.28382000       0.31912000
    24  H          0.56116000       0.33119700       0.26651100
    25  H          0.67845000       0.24455900       0.28033400
    26  C          0.54882000       0.19562000       0.38852000
    27  C          0.67412000       0.36142000       0.38322000
    28  H          0.73573700       0.31226000       0.42941700
    29  C          0.37482000       0.89622000       0.32212000
    30  H          0.31007900       0.91107900       0.27067300
    31  H          0.44127200       0.93640100       0.29310300
    32  H          0.34791600       0.92232700       0.38696700
    33  C          0.68292000       0.64652000       0.57235190
    34  C          0.39863000       0.28123000       0.67903000
    35  H          0.33313500       0.26118500       0.64012900
    36  H          0.36746700       0.31636400       0.73791600
    37  H          0.45107500       0.21294100       0.70596400
    38  C          0.73852000       0.45162000       0.30942000
    39  H          0.68230600       0.49652600       0.25769700
    40  H          0.80243300       0.41381400       0.27268900
    41  H          0.77114700       0.50109500       0.35132200
    42  Cl         0.36564500       0.91996500       0.66255500
    43  O          0.23548160       0.20929160       0.36435140
    44  O          0.19068150       0.11982150       0.56485140
    45  O          0.92715840       0.91898840       0.40962160
    46  O          0.27967170       0.71663840       0.60290160
    47  O          0.92107840       0.17794160       0.40910160
    48  O          0.02672000       0.56115180       0.42387190
    49  C          0.16092000       0.27692000       0.41612000
    50  C          0.97538000       0.38812000       0.53232000
    51  H          0.90308600       0.37094500       0.49958500
    52  H          0.95073800       0.43565000       0.58547900
    53  C          0.02902000       0.91098000       0.46722000
    54  C          0.10132000       0.80928000       0.50362000
    55  H          0.08114600       0.74005700       0.48789200
    56  C          0.20532000       0.81138000       0.56452000
    57  C          0.01082000       0.13442000       0.45992000
    58  C          0.04252000       0.27572000       0.58912000
    59  H          0.10834300       0.29584000       0.63019000
    60  C          0.04732000       0.45592000       0.44702000
    61  C          0.13802000       0.39202000       0.39072000
    62  H          0.18122900       0.43185800       0.33562100
    63  C          0.09962000       0.20532000       0.50752000
    64  C          0.06232000       0.01582000       0.48932000
    65  C          0.16572000       0.01422000       0.54924190
    66  C          0.23772000       0.91488000       0.58902000
    67  C          0.89547000       0.81577000       0.37753000
    68  H          0.95655300       0.78878000       0.33102000
    69  H          0.81975900       0.83183500       0.34001400
    70  H          0.88892500       0.75771400       0.44000700
    71  C          0.96197000       0.20803000       0.66932000
    72  H          0.94299000       0.24891200       0.72745200
    73  H          0.00332100       0.13354700       0.69681100
    74  H          0.88909500       0.19880200       0.63400200
    75  C          0.28632000       0.26163000       0.26482000
    76  H          0.22290600       0.29058300       0.21355700
    77  H          0.34046600       0.20525900       0.23745500
    78  H          0.32934500       0.32393500       0.27707600
    79  C          0.25563000       0.60928000       0.57503000
    80  H          0.25412400       0.61625000       0.49821500
    81  H          0.17900800       0.58977600       0.60363200
    82  H          0.31746000       0.55001100       0.60447000
    83  Cl         0.08866500       0.43333500       0.81248500
    84  O          0.52088160       0.25307150       0.07635140
    85  O          0.25182150       0.56407150       0.92291860
    86  O          0.21420170       0.62660160       0.11209150
    87  O          0.18342170       0.19561160       0.86402840
    88  O          0.52039170       0.51332160       0.07957150
    89  O          0.45352000       0.93060190       0.00092000
    90  C          0.27822000       0.44802000       0.93939810
    91  C          0.24972000       0.25942000       0.91418000
    92  C          0.38102000       0.40662000       0.00052000
    93  C          0.29532000       0.68182000       0.05072000
    94  C          0.21072000       0.37712000       0.89518000
    95  C          0.56652000       0.13252000       0.08972000
    96  H          0.58115000       0.11133100       0.02045500
    97  H          0.50844500       0.08666600       0.12747900
    98  H          0.64035500       0.11958600       0.13011300
    99  C          0.43282000       0.50602000       0.02732000
   100  C          0.41942000       0.28762000       0.01862190
   101  C          0.33083000       0.78532000       0.05932000
   102  H          0.29345300       0.82556000       0.10963700
   103  C          0.34912000       0.61232000       0.96958000
   104  C          0.35142000       0.21392000       0.97588000
   105  H          0.37399500       0.13485300       0.98877300
   106  C          0.41012000       0.68482000       0.87578000
   107  H          0.34626600       0.73329200       0.83168600
   108  C          0.42423000       0.83532000      -0.00662000
   109  C          0.22543000       0.07592000       0.86967000
   110  H          0.17699600       0.04291500       0.82356000
   111  H          0.21943900       0.03622300       0.94236400
   112  H          0.30779600       0.06847200       0.84710700
   113  C          0.48112000       0.61173000       0.80358000
   114  H          0.55117000       0.57110500       0.84135800
   115  H          0.50533800       0.66071300       0.73990800
   116  H          0.43150900       0.55742400       0.78395400
   117  C          0.48902000       0.76492000       0.91688000
   118  H          0.55867800       0.71936600       0.95326700
   119  H          0.51764700       0.81679100       0.85611500
   120  C          0.16603000       0.67863000       0.20142000
   121  H          0.13139100       0.75600300       0.17509300
   122  H          0.22959700       0.67983900       0.25129800
   123  H          0.10523000       0.63456900       0.23677800
   124  Cl         0.10378600       0.03018500       0.18846500
   125  O          0.01641160       0.26905160       0.12101150
   126  O          0.96877150       0.89664150       0.05362140
   127  O          0.75814160       0.83950170       0.12962140
   128  O          0.73207160       0.20678160       0.85666140
   129  O          0.74980170       0.94982160       0.84422150
   130  O          0.79422190       0.53536170       0.92987170
   131  C          0.81862000       0.17342000       0.93182000
   132  C          0.95962000       0.20272000       0.06492000
   133  C          0.94192000       0.01312000       0.03572000
   134  C          0.89212000       0.84882000       0.98432000
   135  C          0.85592000       0.05452000       0.95622000
   136  C          0.87152000       0.24762000       0.98692000
   137  H          0.84818700       0.32640600       0.97178100
   138  C         -0.00408000       0.08452000       0.09092000
   139  C          0.69043000       0.32752000       0.83322000
   140  H          0.63061000       0.34110800       0.77736500
   141  H          0.75688500       0.37055600       0.80996800
   142  H          0.65597600       0.35157000       0.89668800
   143  C          0.81962000       0.95622000       0.91522000
   144  C          0.98262000       0.39092000       0.10072000
   145  H         -0.00124300       0.42141500       0.02706700
   146  H          0.02798800       0.42665600       0.14689500
   147  H          0.89821300       0.40618200       0.11457300
   148  C          0.80502000       0.78062000       0.05402000
   149  C          0.77592000       0.67792000       0.03752000
   150  H          0.72592100       0.63742000       0.08617600
   151  C          0.82112000       0.62862000       0.94492000
   152  C          0.97312000       0.77282000       0.92062000
   153  H          0.02633300       0.71992000       0.97228400
   154  C          0.89762000       0.69972000       0.86632000
   155  H          0.84598500       0.74967100       0.81263900
   156  H          0.95061900       0.64882400       0.82979200
   157  C          0.05283000       0.84003000       0.83962000
   158  H          0.00336600       0.89172600       0.78671900
   159  H          0.10404700       0.78734800       0.80493400
   160  H          0.10138500       0.88327200       0.87606700
   161  C          0.66483000       0.79073000       0.19592000
   162  H          0.60249200       0.77425600       0.15117300
   163  H          0.63166800       0.84438600       0.23997400
   164  H          0.69770700       0.72069500       0.24093400
