data_GRISFL32
_symmetry_space_group_name_H-M    'P1'
_symmetry_Int_Tables_number       1
loop_
_symmetry_equiv_pos_site_id
_symmetry_equiv_pos_as_xyz
1 x,y,z
_cell_length_a                   11.844077
_cell_length_b                   8.382714
_cell_length_c                   25.2804611
_cell_angle_alpha                90.0
_cell_angle_beta                 90.20635
_cell_angle_gamma                90.0
loop_
_atom_site_label
_atom_site_type_symbol
_atom_site_fract_x
_atom_site_fract_y
_atom_site_fract_z
     1  Cl         0.82988400       0.86148400       0.93281200
     2  Cl         0.17011600       0.36148400       0.06718800
     3  O          0.67200120       0.13408180       0.91683600
     4  O          0.32799880       0.63408180       0.08316400
     5  O          0.05447130       0.00149190       0.94699600
     6  O          0.94552870       0.50149190       0.05300400
     7  O          0.58958130       0.27372000       0.00201600
     8  O          0.41041870       0.77372000      -0.00201600
     9  O          0.93575120       0.54516190       0.91565600
    10  O          0.06424880       0.04516190       0.08434400
    11  O          0.67650120       0.55632000       0.90416600
    12  O          0.32349880       0.05632000       0.09583400
    13  O          0.27036140       0.40653000       0.89784800
    14  O          0.72963860       0.90653000       0.10215200
    15  C          0.97672180       0.11533000       0.93673800
    16  C          0.02327820       0.61533000       0.06326200
    17  C          0.04978180       0.60453000       0.92040100
    18  C          0.95021820       0.10453000       0.07959900
    19  H          0.09640800       0.55495200       0.89413200
    20  H          0.90359200       0.05495200       0.10586800
    21  H          0.07873000       0.58015200       0.95498700
    22  H          0.92127000       0.08015200       0.04501300
    23  H          0.05000400       0.71800600       0.91525500
    24  H          0.94999600       0.21800600       0.08474500
    25  C          0.78295180       0.17283000       0.92195800
    26  C          0.21704820       0.67283000       0.07804200
    27  C          0.53207180       0.30153000       0.95705800
    28  C          0.46792820       0.80153000       0.04294200
    29  C          0.86559180       0.06053000       0.93058800
    30  C          0.13440820       0.56053000       0.06941200
    31  C          0.80595180       0.33533000       0.91732800
    32  C          0.19404820       0.83533000       0.08267200
    33  C          0.91882170       0.38773000       0.92187800
    34  C          0.08117830       0.88773000       0.07812200
    35  C          0.00324170       0.27773000       0.93202800
    36  C         -0.00324170       0.77773000       0.06797200
    37  H          0.07764100       0.31150000       0.93573500
    38  H          0.92235900       0.81150000       0.06426500
    39  C          0.69938180       0.41593000       0.90953800
    40  C          0.30061820       0.91593000       0.09046200
    41  C          0.60862170       0.28043000       0.90956800
    42  C          0.39137830       0.78043000       0.09043200
    43  C          0.16816180       0.05023000       0.95875900
    44  C          0.83183820       0.55023000       0.04124100
    45  H          0.19757100       0.11051100       0.92961300
    46  H          0.80242900       0.61051100       0.07038700
    47  H          0.21426200       0.95750300       0.96442900
    48  H          0.78573800       0.45750300       0.03557100
    49  H          0.16858200       0.11498600       0.99005200
    50  H          0.83141800       0.61498600       0.00994800
    51  C          0.37198190       0.38123000       0.90201900
    52  C          0.62801810       0.88123000       0.09798100
    53  C          0.54247180       0.26443000       0.85769800
    54  C          0.45752820       0.76443000       0.14230200
    55  H          0.50615100       0.15932200       0.85801100
    56  H          0.49384900       0.65932200       0.14198900
    57  C          0.42324180       0.34583000       0.95323900
    58  C          0.57675820       0.84583000       0.04676100
    59  H          0.37996200       0.35405400       0.98372800
    60  H          0.62003800       0.85405400       0.01627200
    61  C          0.44877190       0.38863000       0.85488900
    62  C          0.55122810       0.88863000       0.14511100
    63  H          0.48218000       0.49409900       0.85282400
    64  H          0.51782000      -0.00590100       0.14717600
    65  H          0.40470800       0.37172400       0.82295100
    66  H          0.59529200       0.87172400       0.17704900
    67  C          0.52912000       0.29333000       0.05102900
    68  C          0.47088000       0.79333000       0.94897100
    69  H          0.46516300       0.22294100       0.05143500
    70  H          0.53483700       0.72294100       0.94856500
    71  H          0.50375200       0.40166000       0.05407500
    72  H          0.49624800       0.90166000       0.94592500
    73  H          0.57818400       0.26832800       0.08017500
    74  H          0.42181600       0.76832800       0.91982500
    75  C          0.61852000       0.26993000       0.80926900
    76  C          0.38148000       0.76993000       0.19073100
    77  H          0.64879400       0.37546000       0.80536100
    78  H          0.35120600       0.87546000       0.19463900
    79  H          0.57532900       0.24274600       0.77832700
    80  H          0.42467100       0.74274600       0.22167300
    81  H          0.67916000       0.19510400       0.81356600
    82  H          0.32084000       0.69510400       0.18643400
    83  Cl         0.67164400       0.06323700       0.68153200
    84  Cl         0.32835600       0.56323700       0.31846800
    85  O          0.69026130       0.85182000       0.58417600
    86  O          0.30973870       0.35182000       0.41582400
    87  O          0.43278130       0.09062000       0.70376600
    88  O          0.56721870       0.59062000       0.29623400
    89  O          0.30670140       0.75702000       0.55874600
    90  O          0.69329860       0.25702000       0.44125400
    91  O          0.50957170       0.62822000       0.49899800
    92  O          0.49042830       0.12822000       0.50100200
    93  O          0.00007150       0.71692000       0.47227900
    94  O         -0.00007150       0.21692000       0.52772100
    95  O          0.69746190       0.49972000       0.56994900
    96  O          0.30253810      -0.00028000       0.43005100
    97  C          0.44982000      -0.00367000       0.66108800
    98  C          0.55018000       0.49633000       0.33891200
    99  C          0.36198190       0.92273000       0.63288900
   100  C          0.63801810       0.42273000       0.36711100
   101  H          0.28759900       0.93674100       0.64359500
   102  H          0.71240100       0.43674100       0.35640500
   103  C          0.38562000       0.82913000       0.58905900
   104  C          0.61438000       0.32913000       0.41094100
   105  C          0.58390180       0.88053000       0.60278800
   106  C          0.41609820       0.38053000       0.39721200
   107  C          0.90796190       0.73173000       0.49379900
   108  C          0.09203810       0.23173000       0.50620100
   109  C          0.85682000       0.59983000       0.52277900
   110  C          0.14318000       0.09983000       0.47722100
   111  H          0.89762400       0.50631700       0.52793000
   112  H          0.10237600       0.00631700       0.47207000
   113  C          0.71724180       0.86313000       0.48890800
   114  C          0.28275820       0.36313000       0.51109200
   115  H          0.68021800       0.96724500       0.49196200
   116  H          0.31978200       0.46724500       0.50803800
   117  C          0.56270190       0.97453000       0.64639900
   118  C          0.43729810       0.47453000       0.35360100
   119  C          0.31872000       0.13763000       0.71556100
   120  C          0.68128000       0.63763000       0.28443900
   121  H          0.28714700       0.19328100       0.68579500
   122  H          0.71285300       0.69328100       0.31420500
   123  H          0.31862400       0.20638700       0.74592400
   124  H          0.68137600       0.70638700       0.25407600
   125  H          0.27419300       0.04447000       0.72283700
   126  H          0.72580700       0.54447000       0.27716300
   127  C          0.49852000       0.80683000       0.57417900
   128  C          0.50148000       0.30683000       0.42582100
   129  C          0.67855190       0.75743000       0.53507800
   130  C          0.32144810       0.25743000       0.46492200
   131  C          0.75162000       0.61133000       0.54211900
   132  C          0.24838000       0.11133000       0.45788100
   133  C          0.19082000       0.78203000       0.57251100
   134  C          0.80918000       0.28203000       0.42748900
   135  H          0.14299700       0.73273900       0.54648100
   136  H          0.85700300       0.23273900       0.45351900
   137  H          0.17541700       0.89442900       0.57374200
   138  H          0.82458300       0.39442900       0.42625800
   139  H          0.17627500       0.73573300       0.60654800
   140  H          0.82372500       0.23573300       0.39345200
   141  C          0.68862000       0.79223000       0.43464900
   142  C          0.31138000       0.29223000       0.56535100
   143  H          0.72725900       0.69238600       0.43042500
   144  H          0.27274100       0.19238600       0.56957500
   145  H          0.71194100       0.86469700       0.40739200
   146  H          0.28805900       0.36469700       0.59260800
   147  H          0.60861000       0.77508400       0.43209400
   148  H          0.39139000       0.27508400       0.56790600
   149  C          0.84501190       0.88763000       0.49253900
   150  C          0.15498810       0.38763000       0.50746100
   151  H          0.86998700       0.94953500       0.46235800
   152  H          0.13001300       0.44953500       0.53764200
   153  H          0.86260000       0.94772300       0.52429100
   154  H          0.13740000       0.44772300       0.47570900
   155  C          0.55072000       0.71693000       0.53158900
   156  C          0.44928000       0.21693000       0.46841100
   157  C          0.75653000       0.35274000       0.58007150
   158  C          0.24347000       0.85274000       0.41992850
   159  H          0.77146500       0.29968400       0.54717000
   160  H          0.22853500       0.79968400       0.45283000
   161  H          0.71085000       0.28516400       0.60198300
   162  H          0.28915000       0.78516400       0.39801700
   163  H          0.82650400       0.37515000       0.59780300
   164  H          0.17349600       0.87515000       0.40219700
   165  Cl         0.28270500       0.93288800       0.84493200
   166  Cl         0.71729500       0.43288800       0.15506800
   167  O          0.39644120       0.48972000       0.67255600
   168  O          0.60355880      -0.01028000       0.32744400
   169  O          0.13852130       0.47132000       0.66718600
   170  O          0.86147870       0.97132000       0.33281400
   171  O          0.50981130       0.84502000       0.81459600
   172  O          0.49018870       0.34502000       0.18540400
   173  O          0.12700130       0.73342000       0.77760600
   174  O          0.87299870       0.23342000       0.22239400
   175  O          0.05678140       0.87713000       0.69035700
   176  O          0.94321860       0.37713000       0.30964300
   177  O          0.72683850       0.56553000       0.70958900
   178  O          0.27316150       0.06553000       0.29041100
   179  C          0.43360190       0.76863000       0.78390800
   180  C          0.56639810       0.26863000       0.21609200
   181  C          0.26483190       0.61593000       0.72636800
   182  C          0.73516810       0.11593000       0.27363200
   183  C          0.15983180       0.55983000       0.70419800
   184  C          0.84016820       0.05983000       0.29580200
   185  C          0.23926190       0.71893000       0.76784800
   186  C          0.76073810       0.21893000       0.23215200
   187  C          0.46310180       0.66443000       0.74261800
   188  C          0.53689820       0.16443000       0.25738200
   189  H          0.53870500       0.64624400       0.73485000
   190  H          0.46129500       0.14624400       0.26515000
   191  C          0.06633190       0.63763000       0.73894900
   192  C          0.93366810       0.13763000       0.26105100
   193  C          0.37902180       0.58863000       0.71334800
   194  C          0.62097820       0.08863000       0.28665200
   195  C          0.62792000       0.81413000       0.80650100
   196  C          0.37208000       0.31413000       0.19349900
   197  H          0.64893100       0.84801400       0.77163100
   198  H          0.35106900       0.34801400       0.22836900
   199  H          0.64210000       0.70191400       0.81019800
   200  H          0.35790000       0.20191400       0.18980200
   201  H          0.67142100       0.87175600       0.83227000
   202  H          0.32857900       0.37175600       0.16773000
   203  C          0.32052000       0.79803000       0.79650900
   204  C          0.67948000       0.29803000       0.20349100
   205  C         -0.00492000       0.74973000       0.70590900
   206  C          0.00492000       0.24973000       0.29409100
   207  C          0.51217180       0.45703000       0.65857100
   208  C          0.48782820       0.95703000       0.34142900
   209  H          0.51392700       0.38928800       0.62795400
   210  H          0.48607300       0.88928800       0.37204600
   211  H          0.54931800       0.40450900       0.68755300
   212  H          0.45068200       0.90450900       0.31244700
   213  H          0.55025100       0.55534900       0.65090100
   214  H          0.44974900       0.05534900       0.34909900
   215  C          0.88608000       0.72244000       0.69430100
   216  C          0.11392000       0.22244000       0.30569900
   217  H          0.84605100       0.79665200       0.67433800
   218  H          0.15394900       0.29665200       0.32566200
   219  C          0.06982000       0.37824000       0.79158100
   220  C          0.93018000       0.87824000       0.20841900
   221  H          0.10042400       0.31696100       0.76292300
   222  H          0.89957600       0.81696100       0.23707700
   223  H          0.02426200       0.31039500       0.81346400
   224  H          0.97573800       0.81039500       0.18653600
   225  H          0.13031700       0.42221200       0.81228100
   226  H          0.86968300       0.92221200       0.18771900
   227  C         -0.00282000       0.51314000       0.76945900
   228  C          0.00282000       0.01314000       0.23054100
   229  H          0.96232300       0.56759500       0.79952600
   230  H          0.03767700       0.06759500       0.20047400
   231  C          0.82958000       0.57854000       0.71249100
   232  C          0.17042000       0.07854000       0.28750900
   233  C          0.90198000       0.44924000       0.73447100
   234  C          0.09802000       0.94924000       0.26552900
   235  H          0.93434400       0.38879700       0.70551800
   236  H          0.06565600       0.88879700       0.29448200
   237  H          0.85555300       0.37708400       0.75506600
   238  H          0.14444700       0.87708400       0.24493400
   239  C          0.00053000      -0.00386000       0.65903140
   240  C         -0.00053000       0.49614000       0.34096860
   241  H          0.97217600       0.94827600       0.62713000
   242  H          0.02782400       0.44827600       0.37287000
   243  H          0.05291600       0.07927300       0.65024000
   244  H          0.94708400       0.57927300       0.34976000
   245  H          0.93890700       0.04024800       0.67876900
   246  H          0.06109300       0.54024800       0.32123100
