data_GRISFL40
_symmetry_space_group_name_H-M    'P1'
_symmetry_Int_Tables_number       1
loop_
_symmetry_equiv_pos_site_id
_symmetry_equiv_pos_as_xyz
1 x,y,z
_cell_length_a                   9.38246
_cell_length_b                   8.62215
_cell_length_c                   11.83047
_cell_angle_alpha                90.0
_cell_angle_beta                 113.2403
_cell_angle_gamma                90.0
loop_
_atom_site_label
_atom_site_type_symbol
_atom_site_fract_x
_atom_site_fract_y
_atom_site_fract_z
     1  Cl         0.53856130       0.13843140       0.20398110
     2  Cl         0.46143870       0.63843140       0.79601890
     3  O          0.30444000       0.27144000       0.98557000
     4  O          0.69556000       0.77144000       0.01443000
     5  C          0.18777000       0.31627000       0.86865000
     6  C          0.81223000       0.81627000       0.13135000
     7  H          0.14830000       0.22370000       0.81760000
     8  H          0.85170000       0.72370000       0.18240000
     9  H          0.23300000       0.38730000       0.82730000
    10  H          0.76700000       0.88730000       0.17270000
    11  H          0.10230000       0.36810000       0.88140000
    12  H          0.89770000       0.86810000       0.11860000
    13  O          0.40484000       0.80694000       0.11853000
    14  O          0.59516000       0.30694000       0.88147000
    15  C          0.38006000       0.38526000       0.06595000
    16  C          0.61994000       0.88526000       0.93405000
    17  O          0.69144000       0.40784000       0.37003000
    18  O          0.30856000       0.90784000       0.62997000
    19  C          0.49756000       0.33156000       0.17495000
    20  C          0.50244000       0.83156000       0.82505000
    21  O          0.67374000       0.82064000       0.37143000
    22  O          0.32626000       0.32064000       0.62857000
    23  C          0.57896000       0.44316000       0.25965000
    24  C          0.42104000       0.94316000       0.74035000
    25  O          0.03145000       0.68086000       0.79314000
    26  O          0.96855000       0.18086000       0.20686000
    27  C          0.54845000       0.60206000       0.23905000
    28  C          0.45155000       0.10206000       0.76095000
    29  O          0.95204000       0.54505000       0.38533000
    30  O          0.04796000       0.04505000       0.61467000
    31  C          0.42855000       0.65156000       0.13024000
    32  C          0.57145000       0.15156000       0.86976000
    33  C          0.34406000       0.54376000       0.04315000
    34  C          0.65594000       0.04376000       0.95685000
    35  H          0.26280000       0.57610000       0.96880000
    36  H          0.73720000       0.07610000       0.03120000
    37  C          0.27436000       0.86166000       0.01305000
    38  C          0.72564000       0.36166000       0.98695000
    39  H          0.28370000       0.82550000       0.93770000
    40  H          0.71630000       0.32550000       0.06230000
    41  H          0.27230000       0.97520000       0.01370000
    42  H          0.72770000       0.47520000       0.98630000
    43  H          0.17820000       0.82130000       0.01590000
    44  H          0.82180000       0.32130000       0.98410000
    45  C          0.65095000       0.68186000       0.34744000
    46  C          0.34905000       0.18186000       0.65256000
    47  C          0.73805000       0.55186000       0.44084000
    48  C          0.26195000       0.05186000       0.55916000
    49  C          0.68835000       0.53997000       0.54754000
    50  C          0.31165000       0.03997000       0.45246000
    51  H          0.72140000       0.43520000       0.58500000
    52  H          0.27860000       0.93520000       0.41500000
    53  C          0.51236000       0.54798000       0.50696000
    54  C          0.48764000       0.04798000       0.49304000
    55  H          0.47610000       0.65280000       0.47780000
    56  H          0.52390000       0.15280000       0.52220000
    57  H          0.48520000       0.52250000       0.57670000
    58  H          0.51480000       0.02250000       0.42330000
    59  H          0.46290000       0.47340000       0.44020000
    60  H          0.53710000       0.97340000       0.55980000
    61  C          0.77156000       0.65837000       0.64695000
    62  C          0.22844000       0.15837000       0.35305000
    63  H          0.73430000       0.76350000       0.61530000
    64  H          0.26570000       0.26350000       0.38470000
    65  H          0.74510000       0.63910000       0.71880000
    66  H          0.25490000       0.13910000       0.28120000
    67  C          0.94456000       0.65277000       0.68745000
    68  C          0.05544000       0.15277000       0.31255000
    69  C          0.00436000       0.61667000       0.59415000
    70  C         -0.00436000       0.11667000       0.40585000
    71  H          0.11260000       0.62550000       0.61450000
    72  H          0.88740000       0.12550000       0.38550000
    73  C          0.91206000       0.57166000       0.48125000
    74  C          0.08794000       0.07166000       0.51875000
    75  C          0.11186000       0.57438000       0.40706000
    76  C          0.88814000       0.07438000       0.59294000
    77  H          0.12780000       0.55570000       0.33110000
    78  H          0.87220000       0.05570000       0.66890000
    79  H          0.17880000       0.50500000       0.47170000
    80  H          0.82120000       0.00500000       0.52830000
    81  H          0.13750000       0.68240000       0.43270000
    82  H          0.86250000       0.18240000       0.56730000
