data_GRISFL
_symmetry_space_group_name_H-M    'P1'
_symmetry_Int_Tables_number       1
loop_
_symmetry_equiv_pos_site_id
_symmetry_equiv_pos_as_xyz
1 x,y,z
_cell_length_a                   8.9621
_cell_length_b                   8.9621
_cell_length_c                   19.8955
_cell_angle_alpha                90.0
_cell_angle_beta                 90.0
_cell_angle_gamma                90.0
loop_
_atom_site_label
_atom_site_type_symbol
_atom_site_fract_x
_atom_site_fract_y
_atom_site_fract_z
     1  Cl         0.51824000       0.50622000       0.38400000
     2  Cl         0.49378000       0.51824000       0.63400000
     3  Cl         0.48176000       0.49378000       0.88400000
     4  Cl         0.50622000       0.48176000       0.13400000
     5  C          0.14770000       0.26770000       0.28450000
     6  C          0.73230000       0.14770000       0.53450000
     7  C          0.85230000       0.73230000       0.78450000
     8  C          0.26770000       0.85230000       0.03450000
     9  C          0.01600000       0.31430000       0.33090000
    10  C          0.68570000       0.01600000       0.58090000
    11  C          0.98400000       0.68570000       0.83090000
    12  C          0.31430000       0.98400000       0.08090000
    13  C          0.02260000       0.50160000       0.43210000
    14  C          0.49840000       0.02260000       0.68210000
    15  C          0.97740000       0.49840000       0.93210000
    16  C          0.50160000       0.97740000       0.18210000
    17  C          0.11880000       0.59240000       0.46820000
    18  C          0.40760000       0.11880000       0.71820000
    19  C          0.88120000       0.40760000       0.96820000
    20  C          0.59240000       0.88120000       0.21820000
    21  C          0.27040000       0.59450000       0.45420000
    22  C          0.40550000       0.27040000       0.70420000
    23  C          0.72960000       0.40550000       0.95420000
    24  C          0.59450000       0.72960000       0.20420000
    25  C          0.33110000       0.50450000       0.40370000
    26  C          0.49550000       0.33110000       0.65370000
    27  C          0.66890000       0.49550000       0.90370000
    28  C          0.50450000       0.66890000       0.15370000
    29  C          0.23450000       0.41520000       0.36820000
    30  C          0.58480000       0.23450000       0.61820000
    31  C          0.76550000       0.58480000       0.86820000
    32  C          0.41520000       0.76550000       0.11820000
    33  C          0.08190000       0.41220000       0.38060000
    34  C          0.58780000       0.08190000       0.63060000
    35  C          0.91810000       0.58780000       0.88060000
    36  C          0.41220000       0.91810000       0.13060000
    37  C          0.13600000       0.50650000       0.21510000
    38  C          0.49350000       0.13600000       0.46510000
    39  C          0.86400000       0.49350000       0.71510000
    40  C          0.50650000       0.86400000       0.96510000
    41  C          0.26310000       0.88030000       0.32630000
    42  C          0.11970000       0.26310000       0.57630000
    43  C          0.73690000       0.11970000       0.82630000
    44  C          0.88030000       0.73690000       0.07630000
    45  C          0.81240000       0.58090000       0.49620000
    46  C          0.41910000       0.81240000       0.74620000
    47  C          0.18760000       0.41910000      -0.00380000
    48  C          0.58090000       0.18760000       0.24620000
    49  C          0.15880000       0.10010000       0.27860000
    50  C          0.89990000       0.15880000       0.52860000
    51  C          0.84120000       0.89990000       0.77860000
    52  C          0.10010000       0.84120000       0.02860000
    53  C          0.08060000       0.02870000       0.23120000
    54  C          0.97130000       0.08060000       0.48120000
    55  C          0.91940000       0.97130000       0.73120000
    56  C          0.02870000       0.91940000       0.98120000
    57  C         -0.01160000       0.10700000       0.18270000
    58  C          0.89300000      -0.01160000       0.43270000
    59  C          0.01160000       0.89300000       0.68270000
    60  C          0.10700000       0.01160000       0.93270000
    61  C          0.00650000       0.27190000       0.17620000
    62  C          0.72810000       0.00650000       0.42620000
    63  C         -0.00650000       0.72810000       0.67620000
    64  C          0.27190000      -0.00650000       0.92620000
    65  C          0.13880000       0.33770000       0.21380000
    66  C          0.66230000       0.13880000       0.46380000
    67  C          0.86120000       0.66230000       0.71380000
    68  C          0.33770000       0.86120000       0.96380000
    69  C          0.31400000       0.77540000       0.54020000
    70  C          0.22460000       0.31400000       0.79020000
    71  C          0.68600000       0.22460000       0.04020000
    72  C          0.77540000       0.68600000       0.29020000
    73  O          0.28060000       0.32660000       0.31660000
    74  O          0.67340000       0.28060000       0.56660000
    75  O          0.71940000       0.67340000       0.81660000
    76  O          0.32660000       0.71940000       0.06660000
    77  O          0.87480000       0.49240000       0.44250000
    78  O          0.50760000       0.87480000       0.69250000
    79  O          0.12520000       0.50760000       0.94250000
    80  O          0.49240000       0.12520000       0.19250000
    81  O          0.88840000       0.27620000       0.32220000
    82  O          0.72380000       0.88840000       0.57220000
    83  O          0.11160000       0.72380000       0.82220000
    84  O          0.27620000       0.11160000       0.07220000
    85  O          0.36850000       0.68380000       0.48660000
    86  O          0.31620000       0.36850000       0.73660000
    87  O          0.63150000       0.31620000       0.98660000
    88  O          0.68380000       0.63150000       0.23660000
    89  O          0.89770000       0.04040000       0.14830000
    90  O          0.95960000       0.89770000       0.39830000
    91  O          0.10230000       0.95960000       0.64830000
    92  O          0.04040000       0.10230000       0.89830000
    93  O          0.24560000       0.04050000       0.32570000
    94  O          0.95950000       0.24560000       0.57570000
    95  O          0.75440000       0.95950000       0.82570000
    96  O          0.04050000       0.75440000       0.07570000
    97  H          0.08500000       0.64800000       0.49900000
    98  H          0.35200000       0.08500000       0.74900000
    99  H          0.91500000       0.35200000      -0.00100000
   100  H          0.64800000       0.91500000       0.24900000
   101  H          0.22500000       0.54500000       0.23900000
   102  H          0.45500000       0.22500000       0.48900000
   103  H          0.77500000       0.45500000       0.73900000
   104  H          0.54500000       0.77500000       0.98900000
   105  H          0.13500000       0.55200000       0.16900000
   106  H          0.44800000       0.13500000       0.41900000
   107  H          0.86500000       0.44800000       0.66900000
   108  H          0.55200000       0.86500000       0.91900000
   109  H          0.04800000       0.54800000       0.23700000
   110  H          0.45200000       0.04800000       0.48700000
   111  H          0.95200000       0.45200000       0.73700000
   112  H          0.54800000       0.95200000       0.98700000
   113  H          0.17500000       0.83600000       0.33600000
   114  H          0.16400000       0.17500000       0.58600000
   115  H          0.82500000       0.16400000       0.83600000
   116  H          0.83600000       0.82500000       0.08600000
   117  H          0.33700000       0.85400000       0.36300000
   118  H          0.14600000       0.33700000       0.61300000
   119  H          0.66300000       0.14600000       0.86300000
   120  H          0.85400000       0.66300000       0.11300000
   121  H          0.30900000       0.84600000       0.28600000
   122  H          0.15400000       0.30900000       0.53600000
   123  H          0.69100000       0.15400000       0.78600000
   124  H          0.84600000       0.69100000       0.03600000
   125  H          0.85500000       0.55700000       0.53600000
   126  H          0.44300000       0.85500000       0.78600000
   127  H          0.14500000       0.44300000       0.03600000
   128  H          0.55700000       0.14500000       0.28600000
   129  H          0.71400000       0.56700000       0.49700000
   130  H          0.43300000       0.71400000       0.74700000
   131  H          0.28600000       0.43300000      -0.00300000
   132  H          0.56700000       0.28600000       0.24700000
   133  H          0.83800000       0.69800000       0.48800000
   134  H          0.30200000       0.83800000       0.73800000
   135  H          0.16200000       0.30200000       0.98800000
   136  H          0.69800000       0.16200000       0.23800000
   137  H          0.08000000       0.92800000       0.22900000
   138  H          0.07200000       0.08000000       0.47900000
   139  H          0.92000000       0.07200000       0.72900000
   140  H          0.92800000       0.92000000       0.97900000
   141  H          0.92200000       0.31200000       0.19000000
   142  H          0.68800000       0.92200000       0.44000000
   143  H          0.07800000       0.68800000       0.69000000
   144  H          0.31200000       0.07800000       0.94000000
   145  H          0.00700000       0.28700000       0.12900000
   146  H          0.71300000       0.00700000       0.37900000
   147  H         -0.00700000       0.71300000       0.62900000
   148  H          0.28700000      -0.00700000       0.87900000
   149  H          0.22100000       0.31000000       0.19400000
   150  H          0.69000000       0.22100000       0.44400000
   151  H          0.77900000       0.69000000       0.69400000
   152  H          0.31000000       0.77900000       0.94400000
   153  H          0.23600000       0.84200000       0.52000000
   154  H          0.15800000       0.23600000       0.77000000
   155  H          0.76400000       0.15800000       0.02000000
   156  H          0.84200000       0.76400000       0.27000000
   157  H          0.26200000       0.71900000       0.57500000
   158  H          0.28100000       0.26200000       0.82500000
   159  H          0.73800000       0.28100000       0.07500000
   160  H          0.71900000       0.73800000       0.32500000
   161  H          0.40100000       0.82200000       0.55900000
   162  H          0.17800000       0.40100000       0.80900000
   163  H          0.59900000       0.17800000       0.05900000
   164  H          0.82200000       0.59900000       0.30900000
