data_GUPFAB
_symmetry_space_group_name_H-M    'P1'
_symmetry_Int_Tables_number       1
loop_
_symmetry_equiv_pos_site_id
_symmetry_equiv_pos_as_xyz
1 x,y,z
_cell_length_a                   5.04724
_cell_length_b                   9.31187
_cell_length_c                   13.958115
_cell_angle_alpha                90.0
_cell_angle_beta                 99.7088
_cell_angle_gamma                90.0
loop_
_atom_site_label
_atom_site_type_symbol
_atom_site_fract_x
_atom_site_fract_y
_atom_site_fract_z
     1  O          0.05143000       0.44802000       0.20994150
     2  O          0.94857000       0.94802000       0.79005850
     3  N          0.49675000       0.41383000       0.24782190
     4  N          0.50325000       0.91383000       0.75217810
     5  H          0.64860000       0.43440000       0.23220000
     6  H          0.35140000       0.93440000       0.76780000
     7  C          0.59079000       0.15685000       0.25903000
     8  C          0.40921000       0.65685000       0.74097000
     9  H          0.77596200       0.17274400       0.25426200
    10  H          0.22403800       0.67274400       0.74573800
    11  H          0.48854200       0.14315800       0.19513900
    12  H          0.51145800       0.64315800       0.80486100
    13  H          0.57593100       0.07283900       0.29764400
    14  H          0.42406900       0.57283900       0.70235600
    15  C          0.48186000       0.28714000       0.30672000
    16  C          0.51814000       0.78714000       0.69328000
    17  H          0.29128700       0.26888100       0.30830400
    18  H          0.70871300       0.76888100       0.69169600
    19  C          0.62156000       0.30624000       0.41092000
    20  C          0.37844000       0.80624000       0.58908000
    21  C          0.83008000       0.39815000       0.43713000
    22  C          0.16992000       0.89815000       0.56287000
    23  H          0.88942200       0.45431300       0.38987200
    24  H          0.11057800       0.95431300       0.61012800
    25  C          0.95561000       0.40967000       0.53313000
    26  C          0.04439000       0.90967000       0.46687000
    27  H          0.09946300       0.47226500       0.54981300
    28  H          0.90053700       0.97226500       0.45018700
    29  C          0.86741400       0.32869000       0.60294000
    30  C          0.13258600       0.82869000       0.39706000
    31  H          0.94693000       0.33746000       0.66774000
    32  H          0.05307000       0.83746000       0.33226000
    33  C          0.66691600       0.23738000       0.57694000
    34  C          0.33308400       0.73738000       0.42306000
    35  H          0.60950700       0.18017800       0.62410900
    36  H          0.39049300       0.68017800       0.37589100
    37  C          0.54051000       0.22476000       0.48093000
    38  C          0.45949000       0.72476000       0.51907000
    39  H          0.39965100       0.16000200       0.46468400
    40  H          0.60034900       0.66000200       0.53531600
    41  C          0.28095000       0.48463000       0.20237190
    42  C          0.71905000       0.98463000       0.79762810
    43  C          0.33115000       0.61013000       0.14212000
    44  C          0.66885000       0.11013000       0.85788000
    45  C          0.15156000       0.63944000       0.05942000
    46  C          0.84844000       0.13944000       0.94058000
    47  H          0.00036300       0.58161800       0.04280500
    48  H         -0.00036300       0.08161800       0.95719500
    49  C          0.19209000       0.75375000       0.00023000
    50  C          0.80791000       0.25375000      -0.00023000
    51  H          0.07217600       0.77024600       0.94298200
    52  H          0.92782400       0.27024600       0.05701800
    53  C          0.40681000       0.84185000       0.02584000
    54  C          0.59319000       0.34185000       0.97416000
    55  H          0.43112300       0.92015200       0.98685000
    56  H          0.56887700       0.42015200       0.01315000
    57  C          0.58538000       0.81604000       0.10774000
    58  C          0.41462000       0.31604000       0.89226000
    59  H          0.73198100       0.87669300       0.12465900
    60  H          0.26801900       0.37669300       0.87534100
    61  C          0.55126000       0.69934000       0.16673000
    62  C          0.44874000       0.19934000       0.83327000
    63  H          0.67596700       0.68132600       0.22247200
    64  H          0.32403300       0.18132600       0.77752800
