data_GUPFAB01
_symmetry_space_group_name_H-M    'P1'
_symmetry_Int_Tables_number       1
loop_
_symmetry_equiv_pos_site_id
_symmetry_equiv_pos_as_xyz
1 x,y,z
_cell_length_a                   8.34966
_cell_length_b                   5.26322
_cell_length_c                   14.29691
_cell_angle_alpha                90.0
_cell_angle_beta                 99.8006
_cell_angle_gamma                90.0
loop_
_atom_site_label
_atom_site_type_symbol
_atom_site_fract_x
_atom_site_fract_y
_atom_site_fract_z
     1  O          0.43682000       0.79623000       0.72214110
     2  O          0.56318000       0.29623000       0.27785890
     3  N          0.48012000       0.38123000       0.75328120
     4  N          0.51988000       0.88123000       0.24671880
     5  H          0.46330000       0.23050000       0.73611700
     6  H          0.53670000       0.73050000       0.26388300
     7  C          0.54454000       0.20705000       0.91253170
     8  C          0.45546000       0.70705000       0.08746830
     9  H          0.43163600       0.20328700       0.91824000
    10  H          0.56836400       0.70328700       0.08176000
    11  H          0.60934100       0.23141500       0.97408100
    12  H          0.39065900       0.73141500       0.02591900
    13  H          0.57364800       0.04909500       0.88629200
    14  H          0.42635200       0.54909500       0.11370800
    15  C          0.57453000       0.42454000       0.84752140
    16  C          0.42547000       0.92454000       0.15247860
    17  H          0.53350000       0.58022800       0.87263400
    18  H          0.46650000       0.08022800       0.12736600
    19  C          0.75373000       0.46474000       0.84452150
    20  C          0.24627000       0.96474000       0.15547850
    21  C          0.83394000       0.32598000       0.78852000
    22  C          0.16606000       0.82598000       0.21148000
    23  H          0.77774600       0.20333100       0.74904000
    24  H          0.22225400       0.70333100       0.25096000
    25  C         -0.00186000       0.36121100       0.78832000
    26  C          0.00186000       0.86121100       0.21168000
    27  H          0.05070900       0.26049100       0.74945700
    28  H          0.94929100       0.76049100       0.25054300
    29  C          0.08204000       0.53829000       0.84312000
    30  C          0.91796000       0.03829000       0.15688000
    31  H          0.19193300       0.56301100       0.84194100
    32  H          0.80806700       0.06301100       0.15805900
    33  C          0.00404000       0.68138000       0.90054000
    34  C         -0.00404000       0.18138000       0.09946000
    35  H          0.06084200       0.80508200       0.93907100
    36  H          0.93915800       0.30508200       0.06092900
    37  C          0.83994000       0.64336000       0.90183000
    38  C          0.16006000       0.14336000       0.09817000
    39  H          0.78791600       0.74039600       0.94199400
    40  H          0.21208400       0.24039600       0.05800600
    41  C          0.42092000       0.57334000       0.69593140
    42  C          0.57908000       0.07334000       0.30406860
    43  C          0.33382000       0.50544000       0.59924140
    44  C          0.66618000       0.00544000       0.40075860
    45  C          0.21333000       0.66814000       0.55550160
    46  C          0.78667000       0.16814000       0.44449840
    47  H          0.18653800       0.81162000       0.58752300
    48  H          0.81346200       0.31162000       0.41247700
    49  C          0.13253000       0.61865000       0.46458170
    50  C          0.86747000       0.11865000       0.53541830
    51  H          0.05076100       0.72754300       0.43619400
    52  H          0.94923900       0.22754300       0.56380600
    53  C          0.17253000       0.40905000       0.41606160
    54  C          0.82747000       0.90905000       0.58393840
    55  H          0.11854800       0.37698500       0.35476200
    56  H          0.88145200       0.87698500       0.64523800
    57  C          0.29283000       0.24634000       0.45841150
    58  C          0.70717000       0.74634000       0.54158850
    59  H          0.32049800       0.10511500       0.42541800
    60  H          0.67950200       0.60511500       0.57458200
    61  C          0.37253000       0.29254000       0.54998140
    62  C          0.62747000       0.79254000       0.45001860
    63  H          0.45228000       0.18072400       0.57863400
    64  H          0.54772000       0.68072400       0.42136600
