data_GUPFAB02
_symmetry_space_group_name_H-M    'P1'
_symmetry_Int_Tables_number       1
loop_
_symmetry_equiv_pos_site_id
_symmetry_equiv_pos_as_xyz
1 x,y,z
_cell_length_a                   5.21333
_cell_length_b                   18.362512
_cell_length_c                   26.079919
_cell_angle_alpha                90.0
_cell_angle_beta                 90.0
_cell_angle_gamma                90.0
loop_
_atom_site_label
_atom_site_type_symbol
_atom_site_fract_x
_atom_site_fract_y
_atom_site_fract_z
     1  O          0.43873000       0.69302120       0.38661800
     2  O          0.06127000       0.30697880       0.88661800
     3  O          0.56127000       0.19302120       0.11338200
     4  O          0.93873000       0.80697880       0.61338200
     5  N          0.02035000       0.70377150       0.36724110
     6  N          0.47965000       0.29622850       0.86724110
     7  N         -0.02035000       0.20377150       0.13275890
     8  N          0.52035000       0.79622850       0.63275890
     9  H          0.86350000       0.69671600       0.37721100
    10  H          0.63650000       0.30328400       0.87721100
    11  H          0.13650000       0.19671600       0.12278900
    12  H          0.36350000       0.80328400       0.62278900
    13  C          0.85594000       0.70880180       0.27970130
    14  C          0.64406000       0.29119820       0.77970130
    15  C          0.14406000       0.20880180       0.22029870
    16  C          0.35594000       0.79119820       0.72029870
    17  H          0.85604600       0.65660300       0.27766300
    18  H          0.64395400       0.34339700       0.77766300
    19  H          0.14395400       0.15660300       0.22233700
    20  H          0.35604600       0.84339700       0.72233700
    21  H          0.88731600       0.72889000       0.24629900
    22  H          0.61268400       0.27111000       0.74629900
    23  H          0.11268400       0.22889000       0.25370100
    24  H          0.38731600       0.77111000       0.75370100
    25  H          0.69236600       0.72526800       0.29199400
    26  H          0.80763400       0.27473200       0.79199400
    27  H          0.30763400       0.22526800       0.20800600
    28  H          0.19236600       0.77473200       0.70800600
    29  C          0.06636000       0.73371170       0.31654130
    30  C          0.43364000       0.26628830       0.81654130
    31  C          0.93364000       0.23371170       0.18345870
    32  C          0.56636000       0.76628830       0.68345870
    33  H          0.22958600       0.71399300       0.30412000
    34  H          0.27041400       0.28600700       0.80412000
    35  H          0.77041400       0.21399300       0.19588000
    36  H          0.72958600       0.78600700       0.69588000
    37  C          0.09015000       0.81724180       0.31768130
    38  C          0.40985000       0.18275820       0.81768130
    39  C          0.90985000       0.31724180       0.18231870
    40  C          0.59015000       0.68275820       0.68231870
    41  C          0.92983000       0.85932000       0.34610150
    42  C          0.57017000       0.14068000       0.84610150
    43  C          0.07017000       0.35932000       0.15389850
    44  C          0.42983000       0.64068000       0.65389850
    45  H          0.80405100       0.83718500       0.36602400
    46  H          0.69594900       0.16281500       0.86602400
    47  H          0.19594900       0.33718500       0.13397600
    48  H          0.30405100       0.66281500       0.63397600
    49  C          0.95062000       0.93462000       0.34597150
    50  C          0.54938000       0.06538000       0.84597150
    51  C          0.04938000       0.43462000       0.15402850
    52  C          0.45062000       0.56538000       0.65402850
    53  H          0.83981700       0.96222400       0.36600400
    54  H          0.66018300       0.03777600       0.86600400
    55  H          0.16018300       0.46222400       0.13399600
    56  H          0.33981700       0.53777600       0.63399600
    57  C          0.13117000       0.96842000       0.31689160
    58  C          0.36883000       0.03158000       0.81689160
    59  C          0.86883000       0.46842000       0.18310840
    60  C          0.63117000       0.53158000       0.68310840
    61  H          0.14386700       0.01894300       0.31664300
    62  H          0.35613300       0.98105700       0.81664300
    63  H          0.85613300       0.51894300       0.18335700
    64  H          0.64386700       0.48105700       0.68335700
    65  C          0.29247000       0.92712000       0.28823160
    66  C          0.20753000       0.07288000       0.78823160
    67  C          0.70753000       0.42712000       0.21176840
    68  C          0.79247000       0.57288000       0.71176840
    69  H          0.41760600       0.94959000       0.26837700
    70  H          0.08239400       0.05041000       0.76837700
    71  H          0.58239400       0.44959000       0.23162300
    72  H          0.91760600       0.55041000       0.73162300
    73  C          0.27296000       0.85142000       0.28814140
    74  C          0.22704000       0.14858000       0.78814140
    75  C          0.72704000       0.35142000       0.21185860
    76  C          0.77296000       0.64858000       0.71185860
    77  H          0.38377700       0.82380100       0.26804700
    78  H          0.11622300       0.17619900       0.76804700
    79  H          0.61622300       0.32380100       0.23195300
    80  H          0.88377700       0.67619900       0.73195300
    81  C          0.21106000       0.68623160       0.39947130
    82  C          0.28894000       0.31376840       0.89947130
    83  C          0.78894000       0.18623160       0.10052870
    84  C          0.71106000       0.81376840       0.60052870
    85  C          0.13485000       0.65628170       0.45033120
    86  C          0.36515000       0.34371830       0.95033120
    87  C          0.86515000       0.15628170       0.04966880
    88  C          0.63485000       0.84371830       0.54966880
    89  C          0.28336000       0.60179190       0.47200150
    90  C          0.21664000       0.39820810       0.97200150
    91  C          0.71664000       0.10179190       0.02799850
    92  C          0.78336000       0.89820810       0.52799850
    93  H          0.42821000       0.58493900       0.45492900
    94  H          0.07179000       0.41506100       0.95492900
    95  H          0.57179000       0.08493900       0.04507100
    96  H          0.92821000       0.91506100       0.54507100
    97  C          0.21677000       0.57262000       0.51869160
    98  C          0.28323000       0.42738000       0.01869160
    99  C          0.78323000       0.07262000       0.98130840
   100  C          0.71677000       0.92738000       0.48130840
   101  H          0.31434600       0.53502800       0.53254900
   102  H          0.18565400       0.46497200       0.03254900
   103  H          0.68565400       0.03502800       0.96745100
   104  H          0.81434600       0.96497200       0.46745100
   105  C          0.00647000       0.59852000       0.54520140
   106  C          0.49353000       0.40148000       0.04520140
   107  C         -0.00647000       0.09852000       0.95479860
   108  C          0.50647000       0.90148000       0.45479860
   109  H          0.96352600       0.57897400       0.57696900
   110  H          0.53647400       0.42102600       0.07696900
   111  H          0.03647400       0.07897400       0.92303100
   112  H          0.46352600       0.92102600       0.42303100
   113  C          0.86164000       0.65302000       0.52434150
   114  C          0.63836000       0.34698000       0.02434150
   115  C          0.13836000       0.15302000       0.97565850
   116  C          0.36164000       0.84698000       0.47565850
   117  H          0.72050800       0.67089200       0.54212900
   118  H          0.77949200       0.32910800       0.04212900
   119  H          0.27949200       0.17089200       0.95787100
   120  H          0.22050800       0.82910800       0.45787100
   121  C          0.92414000       0.68183170       0.47688140
   122  C          0.57586000       0.31816830       0.97688140
   123  C          0.07586000       0.18183170       0.02311860
   124  C          0.42414000       0.81816830       0.52311860
   125  H          0.82361700       0.71859400       0.46282300
   126  H          0.67638300       0.28140600       0.96282300
   127  H          0.17638300       0.21859400       0.03717700
   128  H          0.32361700       0.78140600       0.53717700
   129  O          0.92953000       0.77969110       0.14990900
   130  O          0.57047000       0.22030890       0.64990900
   131  O          0.07047000       0.27969110       0.35009100
   132  O          0.42953000       0.72030890       0.85009100
   133  N          0.50755000       0.75516140       0.14882120
   134  N         -0.00755000       0.24483860       0.64882120
   135  N          0.49245000       0.25516140       0.35117880
   136  N          0.00755000       0.74483860       0.85117880
   137  H          0.35450000       0.77181600       0.14931200
   138  H          0.14550000       0.22818400       0.64931200
   139  H          0.64550000       0.27181600       0.35068800
   140  H          0.85450000       0.72818400       0.85068800
   141  C          0.34966000       0.63517170       0.17383140
   142  C          0.15034000       0.36482830       0.67383140
   143  C          0.65034000       0.13517170       0.32616860
   144  C          0.84966000       0.86482830       0.82616860
   145  H          0.38435500       0.64631400       0.20911300
   146  H          0.11564500       0.35368600       0.70911300
   147  H          0.61564500       0.14631400       0.29088700
   148  H          0.88435500       0.85368600       0.79088700
   149  H          0.37002700       0.58381800       0.16826100
   150  H          0.12997300       0.41618200       0.66826100
   151  H          0.62997300       0.08381800       0.33173900
   152  H          0.87002700       0.91618200       0.83173900
   153  H          0.17698500       0.64917000       0.16562800
   154  H          0.32301500       0.35083000       0.66562800
   155  H          0.82301500       0.14917000       0.33437200
   156  H          0.67698500       0.85083000       0.83437200
   157  C          0.53656000       0.67688160       0.13957140
   158  C          0.96344000       0.32311840       0.63957140
   159  C          0.46344000       0.17688160       0.36042860
   160  C          0.03656000       0.82311840       0.86042860
   161  H          0.71062700       0.66321900       0.14994400
   162  H          0.78937300       0.33678100       0.64994400
   163  H          0.28937300       0.16321900       0.35005600
   164  H          0.21062700       0.83678100       0.85005600
   165  C          0.50756000       0.65798170       0.08365140
   166  C         -0.00756000       0.34201830       0.58365140
   167  C          0.49244000       0.15798170       0.41634860
   168  C          0.00756000       0.84201830       0.91634860
   169  C          0.31567000       0.68672000       0.05320170
   170  C          0.18433000       0.31328000       0.55320170
   171  C          0.68433000       0.18672000       0.44679830
   172  C          0.81567000       0.81328000       0.94679830
   173  H          0.20105200       0.71976800       0.06755500
   174  H          0.29894800       0.28023200       0.56755500
   175  H          0.79894800       0.21976800       0.43244500
   176  H          0.70105200       0.78023200       0.93244500
   177  C          0.28827000       0.66822000       0.00274180
   178  C          0.21173000       0.33178000       0.50274180
   179  C          0.71173000       0.16822000       0.49725820
   180  C          0.78827000       0.83178000      -0.00274180
   181  H          0.15664800       0.68864100       0.98342100
   182  H          0.34335200       0.31135900       0.48342100
   183  H          0.84335200       0.18864100       0.51657900
   184  H          0.65664800       0.81135900       0.01657900
   185  C          0.45418000       0.61972000       0.98051830
   186  C          0.04582000       0.38028000       0.48051830
   187  C          0.54582000       0.11972000       0.51948170
   188  C          0.95418000       0.88028000       0.01948170
   189  H          0.43681800       0.60706800       0.94617000
   190  H          0.06318200       0.39293200       0.44617000
   191  H          0.56318200       0.10706800       0.55383000
   192  H          0.93681800       0.89293200       0.05383000
   193  C          0.64428000       0.59052000       0.00953190
   194  C          0.85572000       0.40948000       0.50953190
   195  C          0.35572000       0.09052000       0.49046810
   196  C          0.14428000       0.90948000       0.99046810
   197  H          0.75674600       0.55710200      -0.00506900
   198  H          0.74325400       0.44289800       0.49493100
   199  H          0.24325400       0.05710200       0.50506900
   200  H          0.25674600       0.94289800       0.00506900
   201  C          0.67277000       0.60959190       0.06030160
   202  C          0.82723000       0.39040810       0.56030160
   203  C          0.32723000       0.10959190       0.43969840
   204  C          0.17277000       0.89040810       0.93969840
   205  H          0.80624000       0.58944000       0.07922100
   206  H          0.69376000       0.41056000       0.57922100
   207  H          0.19376000       0.08944000       0.42077900
   208  H          0.30624000       0.91056000       0.92077900
   209  C          0.70716000       0.80071170       0.15121120
   210  C          0.79284000       0.19928830       0.65121120
   211  C          0.29284000       0.30071170       0.34878880
   212  C          0.20716000       0.69928830       0.84878880
   213  C          0.64446000       0.88026170       0.15614130
   214  C          0.85554000       0.11973830       0.65614130
   215  C          0.35554000       0.38026170       0.34385870
   216  C          0.14446000       0.61973830       0.84385870
   217  C          0.80597000       0.92343190       0.18443150
   218  C          0.69403000       0.07656810       0.68443150
   219  C          0.19403000       0.42343190       0.31556850
   220  C          0.30597000       0.57656810       0.81556850
   221  H          0.94833900       0.90297700       0.20034200
   222  H          0.55166100       0.09702300       0.70034200
   223  H          0.05166100       0.40297700       0.29965800
   224  H          0.44833900       0.59702300       0.79965800
   225  C          0.75809000      -0.00258000       0.18947180
   226  C          0.74191000       0.00258000       0.68947180
   227  C          0.24191000       0.49742000       0.31052820
   228  C          0.25809000       0.50258000       0.81052820
   229  H          0.86449300       0.02615300       0.20971000
   230  H          0.63550700       0.97384700       0.70971000
   231  H          0.13550700       0.52615300       0.29029000
   232  H          0.36449300       0.47384700       0.79029000
   233  C          0.55379000       0.02802000       0.16455180
   234  C          0.94621000       0.97198000       0.66455180
   235  C          0.44621000       0.52802000       0.33544820
   236  C          0.05379000       0.47198000       0.83544820
   237  H          0.52336000       0.07774000       0.16715500
   238  H         -0.02336000       0.92226000       0.66715500
   239  H          0.47664000       0.57774000       0.33284500
   240  H          0.02336000       0.42226000       0.83284500
   241  C          0.39488000       0.98542000       0.13589180
   242  C          0.10512000       0.01458000       0.63589180
   243  C          0.60512000       0.48542000       0.36410820
   244  C          0.89488000       0.51458000       0.86410820
   245  H          0.25602300       0.00621800       0.11896400
   246  H          0.24397700      -0.00621800       0.61896400
   247  H          0.74397700       0.50621800       0.38103600
   248  H          0.75602300       0.49378200       0.88103600
   249  C          0.43866000       0.91134190       0.13184150
   250  C          0.06134000       0.08865810       0.63184150
   251  C          0.56134000       0.41134190       0.36815850
   252  C          0.93866000       0.58865810       0.86815850
   253  H          0.32805800       0.88253500       0.11256400
   254  H          0.17194200       0.11746500       0.61256400
   255  H          0.67194200       0.38253500       0.38743600
   256  H          0.82805800       0.61746500       0.88743600
