data_GUYVUU
_symmetry_space_group_name_H-M    'P1'
_symmetry_Int_Tables_number       1
loop_
_symmetry_equiv_pos_site_id
_symmetry_equiv_pos_as_xyz
1 x,y,z
_cell_length_a                   11.034607
_cell_length_b                   11.481108
_cell_length_c                   11.859608
_cell_angle_alpha                90.0
_cell_angle_beta                 107.69106
_cell_angle_gamma                90.0
loop_
_atom_site_label
_atom_site_type_symbol
_atom_site_fract_x
_atom_site_fract_y
_atom_site_fract_z
     1  H          0.48051200       0.30221000       0.41741100
     2  H          0.51948800       0.80221000       0.08258900
     3  H          0.51948800       0.69779000       0.58258900
     4  H          0.48051200       0.19779000       0.91741100
     5  H          0.56921300       0.61341100       0.32561200
     6  H          0.43078700       0.11341100       0.17438800
     7  H          0.43078700       0.38658900       0.67438800
     8  H          0.56921300       0.88658900       0.82561200
     9  H          0.28231200       0.30691100       0.26031100
    10  H          0.71768800       0.80691100       0.23968900
    11  H          0.71768800       0.69308900       0.73968900
    12  H          0.28231200       0.19308900       0.76031100
    13  H          0.06831500       0.56481300       0.97428500
    14  H          0.93168500       0.06481300       0.52571500
    15  H          0.93168500       0.43518700       0.02571500
    16  H          0.06831500       0.93518700       0.47428500
    17  H          0.21151300       0.60841200       0.02471200
    18  H          0.78848700       0.10841200       0.47528800
    19  H          0.78848700       0.39158800       0.97528800
    20  H          0.21151300       0.89158800       0.52471200
    21  H          0.37371200       0.63071100       0.16681100
    22  H          0.62628800       0.13071100       0.33318900
    23  H          0.62628800       0.36928900       0.83318900
    24  H          0.37371200       0.86928900       0.66681100
    25  H          0.62281600       0.45821400       0.44281600
    26  H          0.37718400       0.95821400       0.05718400
    27  H          0.37718400       0.54178600       0.55718400
    28  H          0.62281600       0.04178600       0.94281600
    29  O          0.09845500       0.39918500       0.11573500
    30  O          0.90154500       0.89918500       0.38426500
    31  O          0.90154500       0.60081500       0.88426500
    32  O          0.09845500       0.10081500       0.61573500
    33  N          0.15473600       0.55749600       0.02847600
    34  N          0.84526400       0.05749600       0.47152400
    35  N          0.84526400       0.44250400       0.97152400
    36  N          0.15473600       0.94250400       0.52847600
    37  N          0.53462600       0.45983600       0.37702600
    38  N          0.46537400       0.95983600       0.12297400
    39  N          0.46537400       0.54016400       0.62297400
    40  N          0.53462600       0.04016400       0.87702600
    41  C          0.30878700       0.46898600       0.19863600
    42  C          0.69121300       0.96898600       0.30136400
    43  C          0.69121300       0.53101400       0.80136400
    44  C          0.30878700       0.03101400       0.69863600
    45  C          0.17817700       0.47306600       0.10907600
    46  C          0.82182300       0.97306600       0.39092400
    47  C          0.82182300       0.52693400       0.89092400
    48  C          0.17817700       0.02693400       0.60907600
    49  C          0.50794700       0.55382700       0.30725700
    50  C          0.49205300       0.05382700       0.19274300
    51  C          0.49205300       0.44617300       0.69274300
    52  C          0.50794700       0.94617300       0.80725700
    53  C          0.39517700       0.56090600       0.21575700
    54  C          0.60482300       0.06090600       0.28424300
    55  C          0.60482300       0.43909400       0.78424300
    56  C          0.39517700       0.93909400       0.71575700
    57  C          0.45394700       0.36884700       0.36069700
    58  C          0.54605300       0.86884700       0.13930300
    59  C          0.54605300       0.63115300       0.63930300
    60  C          0.45394700       0.13115300       0.86069700
    61  C          0.33949700       0.37147600       0.27161700
    62  C          0.66050300       0.87147600       0.22838300
    63  C          0.66050300       0.62852400       0.72838300
    64  C          0.33949700       0.12852400       0.77161700
    65  H          0.98031400       0.42711200       0.68571300
    66  H          0.01968600       0.92711200       0.81428700
    67  H          0.01968600       0.57288800       0.31428700
    68  H          0.98031400       0.07288800       0.18571300
    69  H          0.92211200       0.09981100       0.89661100
    70  H          0.07788800       0.59981100       0.60338900
    71  H          0.07788800       0.90018900       0.10338900
    72  H          0.92211200       0.40018900       0.39661100
    73  H          0.14461400       0.36521100       0.85481200
    74  H          0.85538600       0.86521100       0.64518800
    75  H          0.85538600       0.63478900       0.14518800
    76  H          0.14461400       0.13478900       0.35481200
    77  O          0.73682600       0.43991500       0.55895500
    78  O          0.26317400       0.93991500       0.94104500
    79  O          0.26317400       0.56008500       0.44104500
    80  O          0.73682600       0.06008500       0.05895500
    81  O          0.70756600       0.25378600       0.50141600
    82  O          0.29243400       0.75378600      -0.00141600
    83  O          0.29243400       0.74621400       0.49858400
    84  O          0.70756600       0.24621400       0.00141600
    85  O          0.62358600       0.18381600       0.69560700
    86  O          0.37641400       0.68381600       0.80439300
    87  O          0.37641400       0.81618400       0.30439300
    88  O          0.62358600       0.31618400       0.19560700
    89  O          0.25878600       0.22778600       0.00588600
    90  O          0.74121400       0.72778600       0.49411400
    91  O          0.74121400       0.77221400      -0.00588600
    92  O          0.25878600       0.27221400       0.50588600
    93  O          0.12776700       0.11223600       0.05517600
    94  O          0.87223300       0.61223600       0.44482400
    95  O          0.87223300       0.88776400       0.94482400
    96  O          0.12776700       0.38776400       0.55517600
    97  O          0.73371600       0.02367500       0.71544700
    98  O          0.26628400       0.52367500       0.78455300
    99  O          0.26628400       0.97632500       0.28455300
   100  O          0.73371600       0.47632500       0.21544700
   101  N          0.72426600       0.13041600       0.71773600
   102  N          0.27573400       0.63041600       0.78226400
   103  N          0.27573400       0.86958400       0.28226400
   104  N          0.72426600       0.36958400       0.21773600
   105  C          0.75792700       0.33207600       0.57341600
   106  C          0.24207300       0.83207600       0.92658400
   107  C          0.24207300       0.66792400       0.42658400
   108  C          0.75792700       0.16792400       0.07341600
   109  N          0.15281600       0.18510600      -0.00981400
   110  N          0.84718400       0.68510600       0.50981400
   111  N          0.84718400       0.81489400       0.00981400
   112  N          0.15281600       0.31489400       0.49018600
   113  C          0.04917700       0.22412600       0.88628600
   114  C          0.95082300       0.72412600       0.61371400
   115  C          0.95082300       0.77587400       0.11371400
   116  C          0.04917700       0.27587400       0.38628600
   117  C          0.85602700       0.29661600       0.68843600
   118  C          0.14397300       0.79661600       0.81156400
   119  C          0.14397300       0.70338400       0.31156400
   120  C          0.85602700       0.20338400       0.18843600
   121  C          0.96923700       0.35925600       0.72855600
   122  C          0.03076300       0.85925600       0.77144400
   123  C          0.03076300       0.64074400       0.27144400
   124  C          0.96923700       0.14074400       0.22855600
   125  C          0.84326700       0.19800600       0.75268600
   126  C          0.15673300       0.69800600       0.74731400
   127  C          0.15673300       0.80199400       0.24731400
   128  C          0.84326700       0.30199400       0.25268600
   129  C          0.93729700       0.16012600       0.85267600
   130  C          0.06270300       0.66012600       0.64732400
   131  C          0.06270300       0.83987400       0.14732400
   132  C          0.93729700       0.33987400       0.35267600
   133  C          0.06756700       0.32311600       0.82654600
   134  C          0.93243300       0.82311600       0.67345400
   135  C          0.93243300       0.67688400       0.17345400
   136  C          0.06756700       0.17688400       0.32654600
