data_GUYVUU01
_symmetry_space_group_name_H-M    'P1'
_symmetry_Int_Tables_number       1
loop_
_symmetry_equiv_pos_site_id
_symmetry_equiv_pos_as_xyz
1 x,y,z
_cell_length_a                   9.64504
_cell_length_b                   10.27224
_cell_length_c                   15.22416
_cell_angle_alpha                79.377218
_cell_angle_beta                 72.017017
_cell_angle_gamma                77.369418
loop_
_atom_site_label
_atom_site_type_symbol
_atom_site_fract_x
_atom_site_fract_y
_atom_site_fract_z
     1  H          0.47291600       0.79921500       0.11801000
     2  H          0.52708400       0.20078500       0.88199000
     3  H          0.29301700       0.65751500       0.18801100
     4  H          0.70698300       0.34248500       0.81198900
     5  H          0.49071700       0.73081500       0.85948900
     6  H          0.50928300       0.26918500       0.14051100
     7  O          0.62871100       0.90210900       0.86015400
     8  O          0.37128900       0.09789100       0.13984600
     9  O          0.66106110       0.89720100      -0.00511600
    10  O          0.33893890       0.10279900       0.00511600
    11  O          0.36720120       0.56404120       0.82742300
    12  O          0.63279880       0.43595880       0.17257700
    13  O          0.15819110       0.56095110       0.93364300
    14  O          0.84180890       0.43904890       0.06635700
    15  O          0.20769900       0.39557800       0.09873600
    16  O          0.79230100       0.60442200       0.90126400
    17  O          0.05524900       0.57122800       0.16568600
    18  O          0.94475100       0.42877200       0.83431400
    19  N          0.60233110       0.86419100       0.94359300
    20  N          0.39766890       0.13580900       0.05640700
    21  N          0.28565120       0.58138100       0.90530300
    22  N          0.71434880       0.41861900       0.09469700
    23  C          0.49319120       0.77432110       0.98526200
    24  C          0.50680880       0.22567890       0.01473800
    25  C          0.34340120       0.63385110       0.96789200
    26  C          0.65659880       0.36614890       0.03210800
    27  C          0.44938120       0.71492110       0.92648200
    28  C          0.55061880       0.28507890       0.07351800
    29  C          0.28484120       0.60808110       0.06392800
    30  C          0.71515880       0.39191890       0.93607200
    31  C          0.17104120       0.51811110       0.11252800
    32  C          0.82895880       0.48188890       0.88747200
    33  C          0.33356130       0.67057120       0.11983800
    34  C          0.66643870       0.32942880       0.88016200
    35  C          0.43745130       0.75485120       0.08103800
    36  C          0.56254870       0.24514880       0.91896200
    37  H          0.80251700       0.66441500       0.17051000
    38  H          0.19748300       0.33558500       0.82949000
    39  H          0.61321600       0.57961600       0.29161000
    40  H          0.38678400       0.42038400       0.70839000
    41  H          0.41291700       0.94191500       0.34851100
    42  H          0.58708300       0.05808500       0.65148900
    43  H          0.59591600       0.04251500       0.23011000
    44  H          0.40408400       0.95748500       0.76989000
    45  H          0.03420000       0.88031800       0.03701300
    46  H          0.96580000       0.11968200       0.96298700
    47  H          0.42920000       0.71281800       0.37731200
    48  H          0.57080000       0.28718200       0.62268800
    49  H          0.99041900       0.76661800       0.10891200
    50  H          0.00958100       0.23338200       0.89108800
    51  C          0.72661130       0.72333120       0.20552800
    52  C          0.27338870       0.27666880       0.79447200
    53  C          0.49530130       0.88905120       0.31043800
    54  C          0.50469870       0.11094880       0.68956200
    55  C          0.61545130       0.67231120       0.27658800
    56  C          0.38454870       0.32768880       0.72341200
    57  C          0.84076120       0.92657110       0.11261800
    58  C          0.15923880       0.07342890       0.88738200
    59  C          0.60403130       0.94512120       0.24071800
    60  C          0.39596870       0.05487880       0.75928200
    61  C          0.72245120       0.86199110       0.18818800
    62  C          0.27754880       0.13800890       0.81181200
    63  O          0.81335900       0.04677800       0.08362600
    64  O          0.18664100       0.95322200       0.91637400
    65  N          0.97022120       0.84744110       0.08338800
    66  N          0.02977880       0.15255890       0.91661200
    67  N          0.50452110       0.75501100       0.32742700
    68  N          0.49547890       0.24498900       0.67257300
    69  H          0.97068400       0.34911400       0.67671000
    70  H          0.02931600       0.65088600       0.32329000
    71  H          0.07971700       0.17581500       0.43791100
    72  H          0.92028300       0.82418500       0.56208900
    73  H          0.14941700       0.48581500       0.60771100
    74  H          0.85058300       0.51418500       0.39228900
    75  O          0.46957900       0.43913800       0.40457600
    76  O          0.53042100       0.56086200       0.59542400
    77  O          0.83008900       0.16956900       0.68911600
    78  O          0.16991100       0.83043100       0.31088400
    79  O          0.30503900       0.62280800       0.44742600
    80  O          0.69496100       0.37719200       0.55257400
    81  O          0.87256900       0.09542900       0.55721700
    82  O          0.12743100       0.90457100       0.44278300
    83  N          0.28116110       0.31593100       0.33575700
    84  N          0.71883890       0.68406900       0.66424300
    85  N          0.89554890       0.16599100       0.60604700
    86  N          0.10445110       0.83400900       0.39395300
    87  O          0.33598130       0.20502100       0.31141700
    88  O          0.66401870       0.79497900       0.68858300
    89  O          0.28917120       0.42197100       0.28439600
    90  O          0.71082880       0.57802900       0.71560400
    91  C          0.22162120       0.41455110       0.48180800
    92  C          0.77837880       0.58544890       0.51819200
    93  C          0.34370120       0.49893110       0.44014800
    94  C          0.65629880       0.50106890       0.55985200
    95  C          0.00885120       0.25191110       0.56303800
    96  C          0.99114880       0.74808890       0.43696200
    97  C          0.02771130       0.34032120       0.61503800
    98  C          0.97228870       0.65967880       0.38496200
    99  C          0.19700120       0.32277110       0.43388800
   100  C          0.80299880       0.67722890       0.56611200
   101  C          0.09289130       0.23961110       0.47229800
   102  C          0.90710870       0.76038890       0.52770200
   103  C          0.13474130       0.42123120       0.57310800
   104  C          0.86525870       0.57876880       0.42689200
   105  H          0.08961800       0.07881600       0.16531100
   106  H          0.91038200       0.92118400       0.83468900
   107  H          0.90461600       0.97268500       0.27971000
   108  H          0.09538400       0.02731500       0.72029000
   109  H          0.48220000       0.12291700       0.48681200
   110  H          0.51780000       0.87708300       0.51318800
   111  H          0.53871800       0.24561800       0.43521100
   112  H          0.46128200       0.75438200       0.56478900
   113  H          0.73531900       0.33581700       0.37621100
   114  H          0.26468100       0.66418300       0.62378900
   115  H          0.92541800       0.42561800       0.25741200
   116  H          0.07458200       0.57438200       0.74258800
   117  H          0.09620000       0.31320000       0.16171500
   118  H          0.90380000       0.68680000       0.83828500
   119  C          0.79749120       0.14316110       0.34102800
   120  C          0.20250880       0.85683890       0.65897200
   121  C          0.67622120       0.07736110       0.41158800
   122  C          0.32377880       0.92263890       0.58841200
   123  C          0.90503130       0.06660120       0.27808900
   124  C          0.09496870       0.93339880       0.72191100
   125  C          0.80369140       0.27798130       0.33634900
   126  C          0.19630860       0.72201870       0.66365100
   127  C          0.91561140       0.33164120       0.26771900
   128  C          0.08438860       0.66835880       0.73228100
   129  C          0.01530130       0.12593120       0.21131900
   130  C          0.98469870       0.87406880       0.78868100
   131  O          0.69481900       0.95352200       0.42810600
   132  O          0.30518100       0.04647800       0.57189400
   133  N          0.01796110       0.25658100       0.20730700
   134  N          0.98203890       0.74341900       0.79269300
   135  N          0.55428120       0.15883110       0.45063800
   136  N          0.44571880       0.84116890       0.54936200
