data_GUYVUU09
_symmetry_space_group_name_H-M    'P1'
_symmetry_Int_Tables_number       1
loop_
_symmetry_equiv_pos_site_id
_symmetry_equiv_pos_as_xyz
1 x,y,z
_cell_length_a                   9.73134
_cell_length_b                   10.35874
_cell_length_c                   15.39356
_cell_angle_alpha                78.7362
_cell_angle_beta                 71.3412
_cell_angle_gamma                77.3072
loop_
_atom_site_label
_atom_site_type_symbol
_atom_site_fract_x
_atom_site_fract_y
_atom_site_fract_z
     1  H          0.47771400       0.79821300       0.12199000
     2  H          0.52228600       0.20178700       0.87801000
     3  H          0.29471600       0.64871300       0.19289000
     4  H          0.70528400       0.35128700       0.80711000
     5  H          0.48971300       0.73451200       0.85281000
     6  H          0.51028700       0.26548800       0.14719000
     7  O          0.63106800       0.89834700       0.85989500
     8  O          0.36893200       0.10165300       0.14010500
     9  O          0.66267100       0.89126900      -0.00884600
    10  O          0.33732900       0.10873100       0.00884600
    11  O          0.35927110       0.57123110       0.83164300
    12  O          0.64072890       0.42876890       0.16835700
    13  O          0.15667100       0.56838100       0.93700400
    14  O          0.84332900       0.43161900       0.06299600
    15  O          0.20714800       0.39979700       0.10044500
    16  O          0.79285200       0.60020300       0.89955500
    17  O          0.05644700       0.57172600       0.16681500
    18  O          0.94355300       0.42827400       0.83318500
    19  N          0.60416900       0.86035800       0.94181300
    20  N          0.39583100       0.13964200       0.05818700
    21  N          0.28193120       0.58711900       0.90833300
    22  N          0.71806880       0.41288100       0.09166700
    23  C          0.49420100       0.77286900       0.98396300
    24  C          0.50579900       0.22713100       0.01603700
    25  C          0.34132100       0.63646900       0.96880300
    26  C          0.65867900       0.36353100       0.03119700
    27  C          0.44787120       0.71653110       0.92680200
    28  C          0.55212880       0.28346890       0.07319800
    29  C          0.28460100       0.60952900       0.06418700
    30  C          0.71539900       0.39047100       0.93581300
    31  C          0.17136110       0.52055100       0.11369700
    32  C          0.82863890       0.47944900       0.88630300
    33  C          0.33511130       0.66905120       0.11871800
    34  C          0.66488870       0.33094880       0.88128200
    35  C          0.43973130       0.75154120       0.07926800
    36  C          0.56026870       0.24845880       0.92073200
    37  H          0.09081600       0.08331300       0.15831100
    38  H          0.90918400       0.91668700       0.84168900
    39  H          0.89201400       0.97088700       0.27719000
    40  H          0.10798600       0.02911300       0.72281000
    41  H          0.47211600       0.11691300       0.49301000
    42  H          0.52788400       0.88308700       0.50699000
    43  H          0.53931500       0.26181500       0.43331000
    44  H          0.46068500       0.73818500       0.56669000
    45  H          0.72791600       0.33721300       0.39251000
    46  H          0.27208400       0.66278700       0.60749000
    47  H          0.93651600       0.43191400       0.26541000
    48  H          0.06348400       0.56808600       0.73459000
    49  H          0.11220000       0.31981600       0.15341100
    50  H          0.88780000       0.68018400       0.84658900
    51  C          0.79588100       0.14590900       0.34143700
    52  C          0.20411900       0.85409100       0.65856300
    53  C          0.67521110       0.07998100       0.41085700
    54  C          0.32478890       0.92001900       0.58914300
    55  C          0.89905120       0.07400120       0.27557800
    56  C          0.10094880       0.92599880       0.72442200
    57  C          0.80746140       0.27655120       0.34076900
    58  C          0.19253860       0.72344880       0.65923100
    59  C          0.91937140       0.33078120       0.27271900
    60  C          0.08062860       0.66921880       0.72728100
    61  C          0.00879140       0.13464130       0.20984900
    62  C          0.99120860       0.86535870       0.79015100
    63  O          0.69075700       0.95741300       0.42430500
    64  O          0.30924300       0.04258700       0.57569500
    65  N          0.01690100       0.26084900       0.20943600
    66  N          0.98309900       0.73915100       0.79056400
    67  N          0.55613120       0.15935120       0.45334800
    68  N          0.44386880       0.84064880       0.54665200
    69  H          0.81761400       0.65231100       0.16321000
    70  H          0.18238600       0.34768900       0.83679000
    71  H          0.61201300       0.56471300       0.29229000
    72  H          0.38798700       0.43528700       0.70771000
    73  H          0.40001500       0.94001200       0.34789000
    74  H          0.59998500       0.05998800       0.65211000
    75  H          0.59561300       0.04511200       0.22578000
    76  H          0.40438700       0.95488800       0.77422000
    77  H          0.04691500       0.88481300       0.02841000
    78  H          0.95308500       0.11518700       0.97159000
    79  H          0.41721600       0.70021400       0.37741000
    80  H          0.58278400       0.29978600       0.62259000
    81  H          0.99171400       0.74821400       0.11051100
    82  H          0.00828600       0.25178600       0.88948900
    83  C          0.72806130       0.72005110       0.20324800
    84  C          0.27193870       0.27994890       0.79675200
    85  C          0.49539130       0.88130120       0.30632800
    86  C          0.50460870       0.11869880       0.69367200
    87  C          0.61645130       0.66836120       0.27340800
    88  C          0.38354870       0.33163880       0.72659200
    89  C          0.84060110       0.92293100       0.11120700
    90  C          0.15939890       0.07706900       0.88879300
    91  C          0.60427120       0.93855120       0.23749800
    92  C          0.39572880       0.06144880       0.76250200
    93  C          0.72339100       0.85767100       0.18595700
    94  C          0.27660900       0.14232900       0.81404300
    95  O          0.81386700       0.04177700       0.08238500
    96  O          0.18613300       0.95822300       0.91761500
    97  N          0.96994120       0.84649120       0.08214900
    98  N          0.03005880       0.15350880       0.91785100
    99  N          0.50499100       0.74874900       0.32308700
   100  N          0.49500900       0.25125100       0.67691300
   101  H          0.96668500       0.34441300       0.68319000
   102  H          0.03331500       0.65558700       0.31681000
   103  H          0.08281300       0.16641300       0.43878000
   104  H          0.91718700       0.83358700       0.56122000
   105  H          0.15621400       0.48871300       0.60789000
   106  H          0.84378600       0.51128700       0.39211000
   107  O          0.47055800       0.43797700       0.40610500
   108  O          0.52944200       0.56202300       0.59389500
   109  O          0.83590100       0.16817800       0.69147600
   110  O          0.16409900       0.83182200       0.30852400
   111  O          0.30446700       0.61881700       0.44121500
   112  O          0.69553300       0.38118300       0.55878500
   113  O          0.87631100       0.09562800       0.56282600
   114  O          0.12368900       0.90437200       0.43717400
   115  N          0.28427110       0.31024110       0.33831600
   116  N          0.71572890       0.68975890       0.66168400
   117  N          0.89979900       0.16480900       0.60967800
   118  N          0.10020100       0.83519100       0.39032200
   119  O          0.33607120       0.20119100       0.31566600
   120  O          0.66392880       0.79880900       0.68433400
   121  O          0.29683110       0.41310900       0.28642600
   122  O          0.70316890       0.58689100       0.71357400
   123  C          0.22435100       0.41105900       0.48084700
   124  C          0.77564900       0.58894100       0.51915300
   125  C          0.34441110       0.49595100       0.43831700
   126  C          0.65558890       0.50404900       0.56168300
   127  C          0.01233110       0.24970900       0.56532700
   128  C          0.98766890       0.75029100       0.43467300
   129  C          0.03170130       0.33818120       0.61486900
   130  C          0.96829870       0.66181880       0.38513100
   131  C          0.20035110       0.31919900       0.43499700
   132  C          0.79964890       0.68080100       0.56500300
   133  C          0.09600120       0.23693110       0.47531800
   134  C          0.90399880       0.76306890       0.52468200
   135  C          0.13798130       0.41826120       0.57188800
   136  C          0.86201870       0.58173880       0.42811200
