data_HALTAP06
_symmetry_space_group_name_H-M    'P1'
_symmetry_Int_Tables_number       1
loop_
_symmetry_equiv_pos_site_id
_symmetry_equiv_pos_as_xyz
1 x,y,z
_cell_length_a                   10.35763
_cell_length_b                   13.7825
_cell_length_c                   11.18924
_cell_angle_alpha                90.0
_cell_angle_beta                 90.0
_cell_angle_gamma                90.0
loop_
_atom_site_label
_atom_site_type_symbol
_atom_site_fract_x
_atom_site_fract_y
_atom_site_fract_z
     1  I          0.15499180       0.31375000       0.67112170
     2  I          0.84500820       0.68625000       0.67112170
     3  I          0.65499180       0.18625000       0.67112170
     4  I          0.34500820       0.81375000       0.67112170
     5  I          0.15499180       0.81375000       0.17112170
     6  I          0.84500820       0.18625000       0.17112170
     7  I          0.65499180       0.68625000       0.17112170
     8  I          0.34500820       0.31375000       0.17112170
     9  I          0.36149170       0.29935000       0.52420140
    10  I          0.63850830       0.70065000       0.52420140
    11  I          0.86149170       0.20065000       0.52420140
    12  I          0.13850830       0.79935000       0.52420140
    13  I          0.36149170       0.79935000       0.02420140
    14  I          0.63850830       0.20065000       0.02420140
    15  I          0.86149170       0.70065000       0.02420140
    16  I          0.13850830       0.29935000       0.02420140
    17  I          0.60547160       0.31014000       0.34705000
    18  I          0.39452840       0.68986000       0.34705000
    19  I          0.10547160       0.18986000       0.34705000
    20  I          0.89452840       0.81014000       0.34705000
    21  I          0.60547160       0.81014000       0.84705000
    22  I          0.39452840       0.18986000       0.84705000
    23  I          0.10547160       0.68986000       0.84705000
    24  I          0.89452840       0.31014000       0.84705000
    25  I          0.50000000       0.50000000       0.34645000
    26  I          0.00000000       0.00000000       0.34645000
    27  I          0.50000000       0.00000000       0.84645000
    28  I          0.00000000       0.50000000       0.84645000
    29  C          0.04340000       0.58890000       0.26340000
    30  C          0.95660000       0.41110000       0.26340000
    31  C          0.54340000       0.91110000       0.26340000
    32  C          0.45660000       0.08890000       0.26340000
    33  C          0.04340000       0.08890000       0.76340000
    34  C          0.95660000       0.91110000       0.76340000
    35  C          0.54340000       0.41110000       0.76340000
    36  C          0.45660000       0.58890000       0.76340000
    37  H          0.08956500       0.63329100       0.31359800
    38  H          0.91043500       0.36670900       0.31359800
    39  H          0.58956500       0.86670900       0.31359800
    40  H          0.41043500       0.13329100       0.31359800
    41  H          0.08956500       0.13329100       0.81359800
    42  H          0.91043500       0.86670900       0.81359800
    43  H          0.58956500       0.36670900       0.81359800
    44  H          0.41043500       0.63329100       0.81359800
    45  H          0.96942500       0.62017700       0.22877500
    46  H          0.03057500       0.37982300       0.22877500
    47  H          0.46942500       0.87982300       0.22877500
    48  H          0.53057500       0.12017700       0.22877500
    49  H          0.96942500       0.12017700       0.72877500
    50  H          0.03057500       0.87982300       0.72877500
    51  H          0.46942500       0.37982300       0.72877500
    52  H          0.53057500       0.62017700       0.72877500
    53  N          0.00000000       0.50000000       0.33740000
    54  N          0.50000000       0.00000000       0.33740000
    55  N          0.00000000       0.00000000       0.83740000
    56  N          0.50000000       0.50000000       0.83740000
    57  C          0.13240000       0.54980000       0.16550000
    58  C          0.86760000       0.45020000       0.16550000
    59  C          0.63240000       0.95020000       0.16550000
    60  C          0.36760000       0.04980000       0.16550000
    61  C          0.13240000       0.04980000       0.66550000
    62  C          0.86760000       0.95020000       0.66550000
    63  C          0.63240000       0.45020000       0.66550000
    64  C          0.36760000       0.54980000       0.66550000
    65  H          0.20889600       0.58756300       0.16183900
    66  H          0.79110400       0.41243700       0.16183900
    67  H          0.70889600       0.91243700       0.16183900
    68  H          0.29110400       0.08756300       0.16183900
    69  H          0.20889600       0.08756300       0.66183900
    70  H          0.79110400       0.91243700       0.66183900
    71  H          0.70889600       0.41243700       0.66183900
    72  H          0.29110400       0.58756300       0.66183900
    73  H          0.08799000       0.55214400       0.08972600
    74  H          0.91201000       0.44785600       0.08972600
    75  H          0.58799000       0.94785600       0.08972600
    76  H          0.41201000       0.05214400       0.08972600
    77  H          0.08799000       0.05214400       0.58972600
    78  H          0.91201000       0.94785600       0.58972600
    79  H          0.58799000       0.44785600       0.58972600
    80  H          0.41201000       0.55214400       0.58972600
    81  H          0.15431500       0.48277000       0.18223800
    82  H          0.84568500       0.51723000       0.18223800
    83  H          0.65431500       0.01723000       0.18223800
    84  H          0.34568500       0.98277000       0.18223800
    85  H          0.15431500       0.98277000       0.68223800
    86  H          0.84568500       0.01723000       0.68223800
    87  H          0.65431500       0.51723000       0.68223800
    88  H          0.34568500       0.48277000       0.68223800
    89  C          0.10830000       0.46790000       0.41240000
    90  C          0.89170000       0.53210000       0.41240000
    91  C          0.60830000       0.03210000       0.41240000
    92  C          0.39170000       0.96790000       0.41240000
    93  C          0.10830000       0.96790000       0.91240000
    94  C          0.89170000       0.03210000       0.91240000
    95  C          0.60830000       0.53210000       0.91240000
    96  C          0.39170000       0.46790000       0.91240000
    97  H          0.08083200       0.40934900       0.45391200
    98  H          0.91916800       0.59065100       0.45391200
    99  H          0.58083200       0.09065100       0.45391200
   100  H          0.41916800       0.90934900       0.45391200
   101  H          0.08083200       0.90934900       0.95391200
   102  H          0.91916800       0.09065100       0.95391200
   103  H          0.58083200       0.59065100       0.95391200
   104  H          0.41916800       0.40934900       0.95391200
   105  H          0.17877300       0.44937600       0.35969200
   106  H          0.82122700       0.55062400       0.35969200
   107  H          0.67877300       0.05062400       0.35969200
   108  H          0.32122700       0.94937600       0.35969200
   109  H          0.17877300       0.94937600       0.85969200
   110  H          0.82122700       0.05062400       0.85969200
   111  H          0.67877300       0.55062400       0.85969200
   112  H          0.32122700       0.44937600       0.85969200
   113  C          0.15740000       0.54112000       0.50360000
   114  C          0.84260000       0.45888000       0.50360000
   115  C          0.65740000       0.95888000       0.50360000
   116  C          0.34260000       0.04112000       0.50360000
   117  C          0.15740000       0.04112000       0.00360000
   118  C          0.84260000       0.95888000       0.00360000
   119  C          0.65740000       0.45888000       0.00360000
   120  C          0.34260000       0.54112000       0.00360000
   121  H          0.23085800       0.51401200       0.54366700
   122  H          0.76914200       0.48598800       0.54366700
   123  H          0.73085800       0.98598800       0.54366700
   124  H          0.26914200       0.01401200       0.54366700
   125  H          0.23085800       0.01401200       0.04366700
   126  H          0.76914200       0.98598800       0.04366700
   127  H          0.73085800       0.48598800       0.04366700
   128  H          0.26914200       0.51401200       0.04366700
   129  H          0.09046700       0.55442200       0.55990600
   130  H          0.90953300       0.44557800       0.55990600
   131  H          0.59046700       0.94557800       0.55990600
   132  H          0.40953300       0.05442200       0.55990600
   133  H          0.09046700       0.05442200       0.05990600
   134  H          0.90953300       0.94557800       0.05990600
   135  H          0.59046700       0.44557800       0.05990600
   136  H          0.40953300       0.55442200       0.05990600
   137  H          0.18182800       0.59930700       0.46284500
   138  H          0.81817200       0.40069300       0.46284500
   139  H          0.68182800       0.90069300       0.46284500
   140  H          0.31817200       0.09930700       0.46284500
   141  H          0.18182800       0.09930700       0.96284500
   142  H          0.81817200       0.90069300       0.96284500
   143  H          0.68182800       0.40069300       0.96284500
   144  H          0.31817200       0.59930700       0.96284500
   145  C          0.95660000       0.41290000       0.26340000
   146  C          0.04340000       0.58710000       0.26340000
   147  C          0.45660000       0.08710000       0.26340000
   148  C          0.54340000       0.91290000       0.26340000
   149  C          0.95660000       0.91290000       0.76340000
   150  C          0.04340000       0.08710000       0.76340000
   151  C          0.45660000       0.58710000       0.76340000
   152  C          0.54340000       0.41290000       0.76340000
   153  C          0.86760000       0.45180000       0.16550000
   154  C          0.13240000       0.54820000       0.16550000
   155  C          0.36760000       0.04820000       0.16550000
   156  C          0.63240000       0.95180000       0.16550000
   157  C          0.86760000       0.95180000       0.66550000
   158  C          0.13240000       0.04820000       0.66550000
   159  C          0.36760000       0.54820000       0.66550000
   160  C          0.63240000       0.45180000       0.66550000
   161  C          0.89170000       0.53390000       0.41240000
   162  C          0.10830000       0.46610000       0.41240000
   163  C          0.39170000       0.96610000       0.41240000
   164  C          0.60830000       0.03390000       0.41240000
   165  C          0.89170000       0.03390000       0.91240000
   166  C          0.10830000       0.96610000       0.91240000
   167  C          0.39170000       0.46610000       0.91240000
   168  C          0.60830000       0.53390000       0.91240000
