data_HALTAP08
_symmetry_space_group_name_H-M    'P1'
_symmetry_Int_Tables_number       1
loop_
_symmetry_equiv_pos_site_id
_symmetry_equiv_pos_as_xyz
1 x,y,z
_cell_length_a                   10.19216
_cell_length_b                   13.5499
_cell_length_c                   10.94357
_cell_angle_alpha                90.0
_cell_angle_beta                 90.0
_cell_angle_gamma                90.0
loop_
_atom_site_label
_atom_site_type_symbol
_atom_site_fract_x
_atom_site_fract_y
_atom_site_fract_z
     1  I          0.15360190       0.31265000       0.67211170
     2  I          0.84639810       0.68735000       0.67211170
     3  I          0.65360190       0.18735000       0.67211170
     4  I          0.34639810       0.81265000       0.67211170
     5  I          0.15360190       0.81265000       0.17211170
     6  I          0.84639810       0.18735000       0.17211170
     7  I          0.65360190       0.68735000       0.17211170
     8  I          0.34639810       0.31265000       0.17211170
     9  I          0.36342000       0.30036000       0.52347110
    10  I          0.63658000       0.69964000       0.52347110
    11  I          0.86342000       0.19964000       0.52347110
    12  I          0.13658000       0.80036000       0.52347110
    13  I          0.36342000       0.80036000       0.02347110
    14  I          0.63658000       0.19964000       0.02347110
    15  I          0.86342000       0.69964000       0.02347110
    16  I          0.13658000       0.30036000       0.02347110
    17  I          0.60940160       0.30863000       0.34704000
    18  I          0.39059840       0.69137000       0.34704000
    19  I          0.10940160       0.19137000       0.34704000
    20  I          0.89059840       0.80863000       0.34704000
    21  I          0.60940160       0.80863000       0.84704000
    22  I          0.39059840       0.19137000       0.84704000
    23  I          0.10940160       0.69137000       0.84704000
    24  I          0.89059840       0.30863000       0.84704000
    25  I          0.50000000       0.50000000       0.34685000
    26  I          0.00000000       0.00000000       0.34685000
    27  I          0.50000000      -0.00000000       0.84685000
    28  I          0.00000000       0.50000000       0.84685000
    29  C          0.03860000       0.57513000       0.26850000
    30  C          0.96140000       0.42487000       0.26850000
    31  C          0.53860000       0.92487000       0.26850000
    32  C          0.46140000       0.07513000       0.26850000
    33  C          0.03860000       0.07513000       0.76850000
    34  C          0.96140000       0.92487000       0.76850000
    35  C          0.53860000       0.42487000       0.76850000
    36  C          0.46140000       0.57513000       0.76850000
    37  H          0.07320700       0.62883300       0.31702600
    38  H          0.92679300       0.37116700       0.31702600
    39  H          0.57320700       0.87116700       0.31702600
    40  H          0.42679300       0.12883300       0.31702600
    41  H          0.07320700       0.12883300       0.81702600
    42  H          0.92679300       0.87116700       0.81702600
    43  H          0.57320700       0.37116700       0.81702600
    44  H          0.42679300       0.62883300       0.81702600
    45  H          0.95992800       0.59990200       0.22820800
    46  H          0.04007200       0.40009800       0.22820800
    47  H          0.45992800       0.90009800       0.22820800
    48  H          0.54007200       0.09990200       0.22820800
    49  H          0.95992800       0.09990200       0.72820800
    50  H          0.04007200       0.90009800       0.72820800
    51  H          0.45992800       0.40009800       0.72820800
    52  H          0.54007200       0.59990200       0.72820800
    53  N         -0.00000000       0.50000000       0.34870000
    54  N          0.50000000       0.00000000       0.34870000
    55  N         -0.00000000      -0.00000000       0.84870000
    56  N          0.50000000       0.50000000       0.84870000
    57  C          0.14060000       0.55312000       0.16780000
    58  C          0.85940000       0.44688000       0.16780000
    59  C          0.64060000       0.94688000       0.16780000
    60  C          0.35940000       0.05312000       0.16780000
    61  C          0.14060000       0.05312000       0.66780000
    62  C          0.85940000       0.94688000       0.66780000
    63  C          0.64060000       0.44688000       0.66780000
    64  C          0.35940000       0.55312000       0.66780000
    65  H          0.17882400       0.61310900       0.13946900
    66  H          0.82117600       0.38689100       0.13946900
    67  H          0.67882400       0.88689100       0.13946900
    68  H          0.32117600       0.11310900       0.13946900
    69  H          0.17882400       0.11310900       0.63946900
    70  H          0.82117600       0.88689100       0.63946900
    71  H          0.67882400       0.38689100       0.63946900
    72  H          0.32117600       0.61310900       0.63946900
    73  H          0.09688000       0.52055900       0.09987800
    74  H          0.90312000       0.47944100       0.09987800
    75  H          0.59688000       0.97944100       0.09987800
    76  H          0.40312000       0.02055900       0.09987800
    77  H          0.09688000       0.02055900       0.59987800
    78  H          0.90312000       0.97944100       0.59987800
    79  H          0.59688000       0.47944100       0.59987800
    80  H          0.40312000       0.52055900       0.59987800
    81  H          0.20675200       0.51009500       0.19928700
    82  H          0.79324800       0.48990500       0.19928700
    83  H          0.70675200      -0.01009500       0.19928700
    84  H          0.29324800       0.01009500       0.19928700
    85  H          0.20675200       0.01009500       0.69928700
    86  H          0.79324800      -0.01009500       0.69928700
    87  H          0.70675200       0.48990500       0.69928700
    88  H          0.29324800       0.51009500       0.69928700
    89  C          0.11240000       0.46590000       0.41750000
    90  C          0.88760000       0.53410000       0.41750000
    91  C          0.61240000       0.03410000       0.41750000
    92  C          0.38760000       0.96590000       0.41750000
    93  C          0.11240000       0.96590000       0.91750000
    94  C          0.88760000       0.03410000       0.91750000
    95  C          0.61240000       0.53410000       0.91750000
    96  C          0.38760000       0.46590000       0.91750000
    97  H          0.08955500       0.40296600       0.45574900
    98  H          0.91044500       0.59703400       0.45574900
    99  H          0.58955500       0.09703400       0.45574900
   100  H          0.41044500       0.90296600       0.45574900
   101  H          0.08955500       0.90296600       0.95574900
   102  H          0.91044500       0.09703400       0.95574900
   103  H          0.58955500       0.59703400       0.95574900
   104  H          0.41044500       0.40296600       0.95574900
   105  H          0.18387000       0.45215300       0.36048900
   106  H          0.81613000       0.54784700       0.36048900
   107  H          0.68387000       0.04784700       0.36048900
   108  H          0.31613000       0.95215300       0.36048900
   109  H          0.18387000       0.95215300       0.86048900
   110  H          0.81613000       0.04784700       0.86048900
   111  H          0.68387000       0.54784700       0.86048900
   112  H          0.31613000       0.45215300       0.86048900
   113  C          0.15460000       0.53017000       0.50570000
   114  C          0.84540000       0.46983000       0.50570000
   115  C          0.65460000       0.96983000       0.50570000
   116  C          0.34540000       0.03017000       0.50570000
   117  C          0.15460000       0.03017000       0.00570000
   118  C          0.84540000       0.96983000       0.00570000
   119  C          0.65460000       0.46983000       0.00570000
   120  C          0.34540000       0.53017000       0.00570000
   121  H          0.24271200       0.51475600       0.52765900
   122  H          0.75728800       0.48524400       0.52765900
   123  H          0.74271200       0.98524400       0.52765900
   124  H          0.25728800       0.01475600       0.52765900
   125  H          0.24271200       0.01475600       0.02765900
   126  H          0.75728800       0.98524400       0.02765900
   127  H          0.74271200       0.48524400       0.02765900
   128  H          0.25728800       0.51475600       0.02765900
   129  H          0.09824600       0.52582400       0.57488800
   130  H          0.90175400       0.47417600       0.57488800
   131  H          0.59824600       0.97417600       0.57488800
   132  H          0.40175400       0.02582400       0.57488800
   133  H          0.09824600       0.02582400       0.07488800
   134  H          0.90175400       0.97417600       0.07488800
   135  H          0.59824600       0.47417600       0.07488800
   136  H          0.40175400       0.52582400       0.07488800
   137  H          0.15108000       0.59630900       0.47249500
   138  H          0.84892000       0.40369100       0.47249500
   139  H          0.65108000       0.90369100       0.47249500
   140  H          0.34892000       0.09630900       0.47249500
   141  H          0.15108000       0.09630900       0.97249500
   142  H          0.84892000       0.90369100       0.97249500
   143  H          0.65108000       0.40369100       0.97249500
   144  H          0.34892000       0.59630900       0.97249500
   145  C          0.88760000       0.53590000       0.41750000
   146  C          0.11240000       0.46410000       0.41750000
   147  C          0.38760000       0.96410000       0.41750000
   148  C          0.61240000       0.03590000       0.41750000
   149  C          0.88760000       0.03590000       0.91750000
   150  C          0.11240000       0.96410000       0.91750000
   151  C          0.38760000       0.46410000       0.91750000
   152  C          0.61240000       0.53590000       0.91750000
