data_HALTAP09
_symmetry_space_group_name_H-M    'P1'
_symmetry_Int_Tables_number       1
loop_
_symmetry_equiv_pos_site_id
_symmetry_equiv_pos_as_xyz
1 x,y,z
_cell_length_a                   10.094117
_cell_length_b                   13.302
_cell_length_c                   10.859419
_cell_angle_alpha                90.0
_cell_angle_beta                 90.0
_cell_angle_gamma                90.0
loop_
_atom_site_label
_atom_site_type_symbol
_atom_site_fract_x
_atom_site_fract_y
_atom_site_fract_z
     1  I          0.15133000       0.31109000       0.67252000
     2  I          0.84867000       0.68891000       0.67252000
     3  I          0.65133000       0.18891000       0.67252000
     4  I          0.34867000       0.81109000       0.67252000
     5  I          0.15133000       0.81109000       0.17252000
     6  I          0.84867000       0.18891000       0.17252000
     7  I          0.65133000       0.68891000       0.17252000
     8  I          0.34867000       0.31109000       0.17252000
     9  I          0.36404000       0.30011000       0.52332000
    10  I          0.63596000       0.69989000       0.52332000
    11  I          0.86404000       0.19989000       0.52332000
    12  I          0.13596000       0.80011000       0.52332000
    13  I          0.36404000       0.80011000       0.02332000
    14  I          0.63596000       0.19989000       0.02332000
    15  I          0.86404000       0.69989000       0.02332000
    16  I          0.13596000       0.30011000       0.02332000
    17  I          0.61173000       0.30776000       0.34678000
    18  I          0.38827000       0.69224000       0.34678000
    19  I          0.11173000       0.19224000       0.34678000
    20  I          0.88827000       0.80776000       0.34678000
    21  I          0.61173000       0.80776000       0.84678000
    22  I          0.38827000       0.19224000       0.84678000
    23  I          0.11173000       0.69224000       0.84678000
    24  I          0.88827000       0.30776000       0.84678000
    25  I          0.50000000       0.50000000       0.34661000
    26  I         -0.00000000       0.00000000       0.34661000
    27  I          0.50000000       0.00000000       0.84661000
    28  I         -0.00000000       0.50000000       0.84661000
    29  C          0.03870000       0.58250000       0.26860000
    30  C          0.96130000       0.41750000       0.26860000
    31  C          0.53870000       0.91750000       0.26860000
    32  C          0.46130000       0.08250000       0.26860000
    33  C          0.03870000       0.08250000       0.76860000
    34  C          0.96130000       0.91750000       0.76860000
    35  C          0.53870000       0.41750000       0.76860000
    36  C          0.46130000       0.58250000       0.76860000
    37  H          0.06637500       0.63672700       0.32083900
    38  H          0.93362500       0.36327300       0.32083900
    39  H          0.56637500       0.86327300       0.32083900
    40  H          0.43362500       0.13672700       0.32083900
    41  H          0.06637500       0.13672700       0.82083900
    42  H          0.93362500       0.86327300       0.82083900
    43  H          0.56637500       0.36327300       0.82083900
    44  H          0.43362500       0.63672700       0.82083900
    45  H          0.96227200       0.60544200       0.22036400
    46  H          0.03772800       0.39455800       0.22036400
    47  H          0.46227200       0.89455800       0.22036400
    48  H          0.53772800       0.10544200       0.22036400
    49  H          0.96227200       0.10544200       0.72036400
    50  H          0.03772800       0.89455800       0.72036400
    51  H          0.46227200       0.39455800       0.72036400
    52  H          0.53772800       0.60544200       0.72036400
    53  N          0.00000000       0.50000000       0.34080000
    54  N          0.50000000       0.00000000       0.34080000
    55  N         -0.00000000       0.00000000       0.84080000
    56  N          0.50000000       0.50000000       0.84080000
    57  C          0.15270000       0.55213000       0.18090000
    58  C          0.84730000       0.44787000       0.18090000
    59  C          0.65270000       0.94787000       0.18090000
    60  C          0.34730000       0.05213000       0.18090000
    61  C          0.15270000       0.05213000       0.68090000
    62  C          0.84730000       0.94787000       0.68090000
    63  C          0.65270000       0.44787000       0.68090000
    64  C          0.34730000       0.55213000       0.68090000
    65  H          0.13513700       0.57919700       0.09951000
    66  H          0.86486300       0.42080300       0.09951000
    67  H          0.63513700       0.92080300       0.09951000
    68  H          0.36486300       0.07919700       0.09951000
    69  H          0.13513700       0.07919700       0.59951000
    70  H          0.86486300       0.92080300       0.59951000
    71  H          0.63513700       0.42080300       0.59951000
    72  H          0.36486300       0.57919700       0.59951000
    73  H          0.15677000       0.47999300       0.17479500
    74  H          0.84323000       0.52000700       0.17479500
    75  H          0.65677000       0.02000700       0.17479500
    76  H          0.34323000       0.97999300       0.17479500
    77  H          0.15677000       0.97999300       0.67479500
    78  H          0.84323000       0.02000700       0.67479500
    79  H          0.65677000       0.52000700       0.67479500
    80  H          0.34323000       0.47999300       0.67479500
    81  H          0.23397700       0.57791900       0.21085100
    82  H          0.76602300       0.42208100       0.21085100
    83  H          0.73397700       0.92208100       0.21085100
    84  H          0.26602300       0.07791900       0.21085100
    85  H          0.23397700       0.07791900       0.71085100
    86  H          0.76602300       0.92208100       0.71085100
    87  H          0.73397700       0.42208100       0.71085100
    88  H          0.26602300       0.57791900       0.71085100
    89  C          0.11270000       0.49819000       0.41880000
    90  C          0.88730000       0.50181000       0.41880000
    91  C          0.61270000       0.00181000       0.41880000
    92  C          0.38730000      -0.00181000       0.41880000
    93  C          0.11270000      -0.00181000       0.91880000
    94  C          0.88730000       0.00181000       0.91880000
    95  C          0.61270000       0.50181000       0.91880000
    96  C          0.38730000       0.49819000       0.91880000
    97  H          0.18979400       0.49936500       0.36467100
    98  H          0.81020600       0.50063500       0.36467100
    99  H          0.68979400       0.00063500       0.36467100
   100  H          0.31020600      -0.00063500       0.36467100
   101  H          0.18979400      -0.00063500       0.86467100
   102  H          0.81020600       0.00063500       0.86467100
   103  H          0.68979400       0.50063500       0.86467100
   104  H          0.31020600       0.49936500       0.86467100
   105  H          0.11267000       0.43287800       0.45833700
   106  H          0.88733000       0.56712200       0.45833700
   107  H          0.61267000       0.06712200       0.45833700
   108  H          0.38733000       0.93287800       0.45833700
   109  H          0.11267000       0.93287800       0.95833700
   110  H          0.88733000       0.06712200       0.95833700
   111  H          0.61267000       0.56712200       0.95833700
   112  H          0.38733000       0.43287800       0.95833700
   113  C          0.13650000       0.58511000       0.52860000
   114  C          0.86350000       0.41489000       0.52860000
   115  C          0.63650000       0.91489000       0.52860000
   116  C          0.36350000       0.08511000       0.52860000
   117  C          0.13650000       0.08511000       0.02860000
   118  C          0.86350000       0.91489000       0.02860000
   119  C          0.63650000       0.41489000       0.02860000
   120  C          0.36350000       0.58511000       0.02860000
   121  H          0.19791100       0.56020900       0.58803200
   122  H          0.80208900       0.43979100       0.58803200
   123  H          0.69791100       0.93979100       0.58803200
   124  H          0.30208900       0.06020900       0.58803200
   125  H          0.19791100       0.06020900       0.08803200
   126  H          0.80208900       0.93979100       0.08803200
   127  H          0.69791100       0.43979100       0.08803200
   128  H          0.30208900       0.56020900       0.08803200
   129  H          0.05357300       0.60030400       0.56736300
   130  H          0.94642700       0.39969600       0.56736300
   131  H          0.55357300       0.89969600       0.56736300
   132  H          0.44642700       0.10030400       0.56736300
   133  H          0.05357300       0.10030400       0.06736300
   134  H          0.94642700       0.89969600       0.06736300
   135  H          0.55357300       0.39969600       0.06736300
   136  H          0.44642700       0.60030400       0.06736300
   137  H          0.17149700       0.64546700       0.49144000
   138  H          0.82850300       0.35453300       0.49144000
   139  H          0.67149700       0.85453300       0.49144000
   140  H          0.32850300       0.14546700       0.49144000
   141  H          0.17149700       0.14546700      -0.00856000
   142  H          0.82850300       0.85453300      -0.00856000
   143  H          0.67149700       0.35453300      -0.00856000
   144  H          0.32850300       0.64546700      -0.00856000
   145  C          0.96130000       0.41850000       0.26860000
   146  C          0.03870000       0.58150000       0.26860000
   147  C          0.46130000       0.08150000       0.26860000
   148  C          0.53870000       0.91850000       0.26860000
   149  C          0.96130000       0.91850000       0.76860000
   150  C          0.03870000       0.08150000       0.76860000
   151  C          0.46130000       0.58150000       0.76860000
   152  C          0.53870000       0.41850000       0.76860000
