data_HALTAP04
_symmetry_space_group_name_H-M    'P1'
_symmetry_Int_Tables_number       1
loop_
_symmetry_equiv_pos_site_id
_symmetry_equiv_pos_as_xyz
1 x,y,z
_cell_length_a                   10.67623
_cell_length_b                   14.2715
_cell_length_c                   11.59284
_cell_angle_alpha                90.0
_cell_angle_beta                 90.0
_cell_angle_gamma                90.0
loop_
_atom_site_label
_atom_site_type_symbol
_atom_site_fract_x
_atom_site_fract_y
_atom_site_fract_z
     1  I          0.15720140       0.31163000       0.66974110
     2  I          0.84279860       0.68837000       0.66974110
     3  I          0.65720140       0.18837000       0.66974110
     4  I          0.34279860       0.81163000       0.66974110
     5  I          0.15720140       0.81163000       0.16974110
     6  I          0.84279860       0.18837000       0.16974110
     7  I          0.65720140       0.68837000       0.16974110
     8  I          0.34279860       0.31163000       0.16974110
     9  I          0.35704140       0.29933000       0.52558100
    10  I          0.64295860       0.70067000       0.52558100
    11  I          0.85704140       0.20067000       0.52558100
    12  I          0.14295860       0.79933000       0.52558100
    13  I          0.35704140       0.79933000       0.02558100
    14  I          0.64295860       0.20067000       0.02558100
    15  I          0.85704140       0.70067000       0.02558100
    16  I          0.14295860       0.29933000       0.02558100
    17  C          0.04820000       0.57540000       0.26761800
    18  C          0.95180000       0.42460000       0.26761800
    19  C          0.54820000       0.92460000       0.26761800
    20  C          0.45180000       0.07540000       0.26761800
    21  C          0.04820000       0.07540000       0.76761800
    22  C          0.95180000       0.92460000       0.76761800
    23  C          0.54820000       0.42460000       0.76761800
    24  C          0.45180000       0.57540000       0.76761800
    25  H          0.08882900       0.61937800       0.31884600
    26  H          0.91117100       0.38062200       0.31884600
    27  H          0.58882900       0.88062200       0.31884600
    28  H          0.41117100       0.11937800       0.31884600
    29  H          0.08882900       0.11937800       0.81884600
    30  H          0.91117100       0.88062200       0.81884600
    31  H          0.58882900       0.38062200       0.81884600
    32  H          0.41117100       0.61937800       0.81884600
    33  H          0.97802300       0.60727100       0.23197000
    34  H          0.02197700       0.39272900       0.23197000
    35  H          0.47802300       0.89272900       0.23197000
    36  H          0.52197700       0.10727100       0.23197000
    37  H          0.97802300       0.10727100       0.73197000
    38  H          0.02197700       0.89272900       0.73197000
    39  H          0.47802300       0.39272900       0.73197000
    40  H          0.52197700       0.60727100       0.73197000
    41  N         -0.00000000       0.50000000       0.33520000
    42  N          0.50000000       0.00000000       0.33520000
    43  N          0.00000000       0.00000000       0.83520000
    44  N          0.50000000       0.50000000       0.83520000
    45  C          0.14030000       0.54840000       0.17330000
    46  C          0.85970000       0.45160000       0.17330000
    47  C          0.64030000       0.95160000       0.17330000
    48  C          0.35970000       0.04840000       0.17330000
    49  C          0.14030000       0.04840000       0.67330000
    50  C          0.85970000       0.95160000       0.67330000
    51  C          0.64030000       0.45160000       0.67330000
    52  C          0.35970000       0.54840000       0.67330000
    53  H          0.18593800       0.60297800       0.14944400
    54  H          0.81406200       0.39702200       0.14944400
    55  H          0.68593800       0.89702200       0.14944400
    56  H          0.31406200       0.10297800       0.14944400
    57  H          0.18593800       0.10297800       0.64944400
    58  H          0.81406200       0.89702200       0.64944400
    59  H          0.68593800       0.39702200       0.64944400
    60  H          0.31406200       0.60297800       0.64944400
    61  H          0.09560800       0.52290000       0.10884500
    62  H          0.90439200       0.47710000       0.10884500
    63  H          0.59560800       0.97710000       0.10884500
    64  H          0.40439200       0.02290000       0.10884500
    65  H          0.09560800       0.02290000       0.60884500
    66  H          0.90439200       0.97710000       0.60884500
    67  H          0.59560800       0.47710000       0.60884500
    68  H          0.40439200       0.52290000       0.60884500
    69  H          0.19779400       0.50236700       0.20260800
    70  H          0.80220600       0.49763300       0.20260800
    71  H          0.69779400      -0.00236700       0.20260800
    72  H          0.30220600       0.00236700       0.20260800
    73  H          0.19779400       0.00236700       0.70260800
    74  H          0.80220600      -0.00236700       0.70260800
    75  H          0.69779400       0.49763300       0.70260800
    76  H          0.30220600       0.50236700       0.70260800
    77  C          0.10520000       0.45640000       0.41031900
    78  C          0.89480000       0.54360000       0.41031900
    79  C          0.60520000       0.04360000       0.41031900
    80  C          0.39480000       0.95640000       0.41031900
    81  C          0.10520000       0.95640000       0.91031900
    82  C          0.89480000       0.04360000       0.91031900
    83  C          0.60520000       0.54360000       0.91031900
    84  C          0.39480000       0.45640000       0.91031900
    85  H          0.17308400       0.43335900       0.36198600
    86  H          0.82691600       0.56664100       0.36198600
    87  H          0.67308400       0.06664100       0.36198600
    88  H          0.32691600       0.93335900       0.36198600
    89  H          0.17308400       0.93335900       0.86198600
    90  H          0.82691600       0.06664100       0.86198600
    91  H          0.67308400       0.56664100       0.86198600
    92  H          0.32691600       0.43335900       0.86198600
    93  H          0.07266900       0.40321600       0.45451700
    94  H          0.92733100       0.59678400       0.45451700
    95  H          0.57266900       0.09678400       0.45451700
    96  H          0.42733100       0.90321600       0.45451700
    97  H          0.07266900       0.90321600       0.95451700
    98  H          0.92733100       0.09678400       0.95451700
    99  H          0.57266900       0.59678400       0.95451700
   100  H          0.42733100       0.40321600       0.95451700
   101  C          0.15530000       0.54060000       0.49830000
   102  C          0.84470000       0.45940000       0.49830000
   103  C          0.65530000       0.95940000       0.49830000
   104  C          0.34470000       0.04060000       0.49830000
   105  C          0.15530000       0.04060000      -0.00170000
   106  C          0.84470000       0.95940000      -0.00170000
   107  C          0.65530000       0.45940000      -0.00170000
   108  C          0.34470000       0.54060000      -0.00170000
   109  H          0.22039500       0.51594800       0.54593700
   110  H          0.77960500       0.48405200       0.54593700
   111  H          0.72039500       0.98405200       0.54593700
   112  H          0.27960500       0.01594800       0.54593700
   113  H          0.22039500       0.01594800       0.04593700
   114  H          0.77960500       0.98405200       0.04593700
   115  H          0.72039500       0.48405200       0.04593700
   116  H          0.27960500       0.51594800       0.04593700
   117  H          0.08645900       0.56096200       0.54467700
   118  H          0.91354100       0.43903800       0.54467700
   119  H          0.58645900       0.93903800       0.54467700
   120  H          0.41354100       0.06096200       0.54467700
   121  H          0.08645900       0.06096200       0.04467700
   122  H          0.91354100       0.93903800       0.04467700
   123  H          0.58645900       0.43903800       0.04467700
   124  H          0.41354100       0.56096200       0.04467700
   125  H          0.18607900       0.59111000       0.45252300
   126  H          0.81392100       0.40889000       0.45252300
   127  H          0.68607900       0.90889000       0.45252300
   128  H          0.31392100       0.09111000       0.45252300
   129  H          0.18607900       0.09111000       0.95252300
   130  H          0.81392100       0.90889000       0.95252300
   131  H          0.68607900       0.40889000       0.95252300
   132  H          0.31392100       0.59111000       0.95252300
   133  C          0.95180000       0.42540000       0.26761800
   134  C          0.04820000       0.57460000       0.26761800
   135  C          0.45180000       0.07460000       0.26761800
   136  C          0.54820000       0.92540000       0.26761800
   137  C          0.95180000       0.92540000       0.76761800
   138  C          0.04820000       0.07460000       0.76761800
   139  C          0.45180000       0.57460000       0.76761800
   140  C          0.54820000       0.42540000       0.76761800
   141  C          0.85970000       0.45240000       0.17330000
   142  C          0.14030000       0.54760000       0.17330000
   143  C          0.35970000       0.04760000       0.17330000
   144  C          0.64030000       0.95240000       0.17330000
   145  C          0.85970000       0.95240000       0.67330000
   146  C          0.14030000       0.04760000       0.67330000
   147  C          0.35970000       0.54760000       0.67330000
   148  C          0.64030000       0.45240000       0.67330000
   149  C          0.89480000       0.54440000       0.41031900
   150  C          0.10520000       0.45560000       0.41031900
   151  C          0.39480000       0.95560000       0.41031900
   152  C          0.60520000       0.04440000       0.41031900
   153  C          0.89480000       0.04440000       0.91031900
   154  C          0.10520000       0.95560000       0.91031900
   155  C          0.39480000       0.45560000       0.91031900
   156  C          0.60520000       0.54440000       0.91031900
   157  C          0.84470000       0.46060000       0.49830000
   158  C          0.15530000       0.53940000       0.49830000
   159  C          0.34470000       0.03940000       0.49830000
   160  C          0.65530000       0.96060000       0.49830000
   161  C          0.84470000       0.96060000      -0.00170000
   162  C          0.15530000       0.03940000      -0.00170000
   163  C          0.34470000       0.53940000      -0.00170000
   164  C          0.65530000       0.46060000      -0.00170000
   165  I          0.59667140       0.31242000       0.34673000
   166  I          0.40332860       0.68758000       0.34673000
   167  I          0.09667140       0.18758000       0.34673000
   168  I          0.90332860       0.81242000       0.34673000
   169  I          0.59667140       0.81242000       0.84673000
   170  I          0.40332860       0.18758000       0.84673000
   171  I          0.09667140       0.68758000       0.84673000
   172  I          0.90332860       0.31242000       0.84673000
   173  I          0.50000000       0.50000000       0.34653000
   174  I         -0.00000000       0.00000000       0.34653000
   175  I          0.50000000       0.00000000       0.84653000
   176  I         -0.00000000       0.50000000       0.84653000
