data_HALTAP05
_symmetry_space_group_name_H-M    'P1'
_symmetry_Int_Tables_number       1
loop_
_symmetry_equiv_pos_site_id
_symmetry_equiv_pos_as_xyz
1 x,y,z
_cell_length_a                   10.48913
_cell_length_b                   13.9894
_cell_length_c                   11.41613
_cell_angle_alpha                90.0
_cell_angle_beta                 90.0
_cell_angle_gamma                90.0
loop_
_atom_site_label
_atom_site_type_symbol
_atom_site_fract_x
_atom_site_fract_y
_atom_site_fract_z
     1  I          0.15571160       0.31324000       0.67046110
     2  I          0.84428840       0.68676000       0.67046110
     3  I          0.65571160       0.18676000       0.67046110
     4  I          0.34428840       0.81324000       0.67046110
     5  I          0.15571160       0.81324000       0.17046110
     6  I          0.84428840       0.18676000       0.17046110
     7  I          0.65571160       0.68676000       0.17046110
     8  I          0.34428840       0.31324000       0.17046110
     9  I          0.35952170       0.29914000       0.52492110
    10  I          0.64047830       0.70086000       0.52492110
    11  I          0.85952170       0.20086000       0.52492110
    12  I          0.14047830       0.79914000       0.52492110
    13  I          0.35952170       0.79914000       0.02492110
    14  I          0.64047830       0.20086000       0.02492110
    15  I          0.85952170       0.70086000       0.02492110
    16  I          0.14047830       0.29914000       0.02492110
    17  C          0.04530000       0.58050000       0.26520000
    18  C          0.95470000       0.41950000       0.26520000
    19  C          0.54530000       0.91950000       0.26520000
    20  C          0.45470000       0.08050000       0.26520000
    21  C          0.04530000       0.08050000       0.76520000
    22  C          0.95470000       0.91950000       0.76520000
    23  C          0.54530000       0.41950000       0.76520000
    24  C          0.45470000       0.58050000       0.76520000
    25  H          0.08438000       0.62527900       0.31783000
    26  H          0.91562000       0.37472100       0.31783000
    27  H          0.58438000       0.87472100       0.31783000
    28  H          0.41562000       0.12527900       0.31783000
    29  H          0.08438000       0.12527900       0.81783000
    30  H          0.91562000       0.87472100       0.81783000
    31  H          0.58438000       0.37472100       0.81783000
    32  H          0.41562000       0.62527900       0.81783000
    33  H          0.97171900       0.61088500       0.22993800
    34  H          0.02828100       0.38911500       0.22993800
    35  H          0.47171900       0.88911500       0.22993800
    36  H          0.52828100       0.11088500       0.22993800
    37  H          0.97171900       0.11088500       0.72993800
    38  H          0.02828100       0.88911500       0.72993800
    39  H          0.47171900       0.38911500       0.72993800
    40  H          0.52828100       0.61088500       0.72993800
    41  N          0.00000000       0.50000000       0.33330000
    42  N          0.50000000      -0.00000000       0.33330000
    43  N         -0.00000000      -0.00000000       0.83330000
    44  N          0.50000000       0.50000000       0.83330000
    45  C          0.13940000       0.55670000       0.16930000
    46  C          0.86060000       0.44330000       0.16930000
    47  C          0.63940000       0.94330000       0.16930000
    48  C          0.36060000       0.05670000       0.16930000
    49  C          0.13940000       0.05670000       0.66930000
    50  C          0.86060000       0.94330000       0.66930000
    51  C          0.63940000       0.44330000       0.66930000
    52  C          0.36060000       0.55670000       0.66930000
    53  H          0.15467600       0.61258600       0.12225100
    54  H          0.84532400       0.38741400       0.12225100
    55  H          0.65467600       0.88741400       0.12225100
    56  H          0.34532400       0.11258600       0.12225100
    57  H          0.15467600       0.11258600       0.62225100
    58  H          0.84532400       0.88741400       0.62225100
    59  H          0.65467600       0.38741400       0.62225100
    60  H          0.34532400       0.61258600       0.62225100
    61  H          0.10523600       0.50685500       0.11961900
    62  H          0.89476400       0.49314500       0.11961900
    63  H          0.60523600      -0.00685500       0.11961900
    64  H          0.39476400       0.00685500       0.11961900
    65  H          0.10523600       0.00685500       0.61961900
    66  H          0.89476400      -0.00685500       0.61961900
    67  H          0.60523600       0.49314500       0.61961900
    68  H          0.39476400       0.50685500       0.61961900
    69  H          0.21811700       0.53519000       0.20265300
    70  H          0.78188300       0.46481000       0.20265300
    71  H          0.71811700       0.96481000       0.20265300
    72  H          0.28188300       0.03519000       0.20265300
    73  H          0.21811700       0.03519000       0.70265300
    74  H          0.78188300       0.96481000       0.70265300
    75  H          0.71811700       0.46481000       0.70265300
    76  H          0.28188300       0.53519000       0.70265300
    77  C          0.10630000       0.46370000       0.41030000
    78  C          0.89370000       0.53630000       0.41030000
    79  C          0.60630000       0.03630000       0.41030000
    80  C          0.39370000       0.96370000       0.41030000
    81  C          0.10630000       0.96370000       0.91030000
    82  C          0.89370000       0.03630000       0.91030000
    83  C          0.60630000       0.53630000       0.91030000
    84  C          0.39370000       0.46370000       0.91030000
    85  H          0.07588500       0.40453400       0.44717200
    86  H          0.92411500       0.59546600       0.44717200
    87  H          0.57588500       0.09546600       0.44717200
    88  H          0.42411500       0.90453400       0.44717200
    89  H          0.07588500       0.90453400       0.94717200
    90  H          0.92411500       0.09546600       0.94717200
    91  H          0.57588500       0.59546600       0.94717200
    92  H          0.42411500       0.40453400       0.94717200
    93  H          0.17662100       0.44533200       0.35967800
    94  H          0.82337900       0.55466800       0.35967800
    95  H          0.67662100       0.05466800       0.35967800
    96  H          0.32337900       0.94533200       0.35967800
    97  H          0.17662100       0.94533200       0.85967800
    98  H          0.82337900       0.05466800       0.85967800
    99  H          0.67662100       0.55466800       0.85967800
   100  H          0.32337900       0.44533200       0.85967800
   101  C          0.15230000       0.52580000       0.49930000
   102  C          0.84770000       0.47420000       0.49930000
   103  C          0.65230000       0.97420000       0.49930000
   104  C          0.34770000       0.02580000       0.49930000
   105  C          0.15230000       0.02580000      -0.00070000
   106  C          0.84770000       0.97420000      -0.00070000
   107  C          0.65230000       0.47420000      -0.00070000
   108  C          0.34770000       0.52580000      -0.00070000
   109  H          0.23022200       0.49937700       0.53043800
   110  H          0.76977800       0.50062300       0.53043800
   111  H          0.73022200       0.00062300       0.53043800
   112  H          0.26977800      -0.00062300       0.53043800
   113  H          0.23022200      -0.00062300       0.03043800
   114  H          0.76977800       0.00062300       0.03043800
   115  H          0.73022200       0.50062300       0.03043800
   116  H          0.26977800       0.49937700       0.03043800
   117  H          0.09024900       0.53024700       0.56021000
   118  H          0.90975100       0.46975300       0.56021000
   119  H          0.59024900       0.96975300       0.56021000
   120  H          0.40975100       0.03024700       0.56021000
   121  H          0.09024900       0.03024700       0.06021000
   122  H          0.90975100       0.96975300       0.06021000
   123  H          0.59024900       0.46975300       0.06021000
   124  H          0.40975100       0.53024700       0.06021000
   125  H          0.16854300       0.58689400       0.46606200
   126  H          0.83145700       0.41310600       0.46606200
   127  H          0.66854300       0.91310600       0.46606200
   128  H          0.33145700       0.08689400       0.46606200
   129  H          0.16854300       0.08689400       0.96606200
   130  H          0.83145700       0.91310600       0.96606200
   131  H          0.66854300       0.41310600       0.96606200
   132  H          0.33145700       0.58689400       0.96606200
   133  C          0.95470000       0.42050000       0.26520000
   134  C          0.04530000       0.57950000       0.26520000
   135  C          0.45470000       0.07950000       0.26520000
   136  C          0.54530000       0.92050000       0.26520000
   137  C          0.95470000       0.92050000       0.76520000
   138  C          0.04530000       0.07950000       0.76520000
   139  C          0.45470000       0.57950000       0.76520000
   140  C          0.54530000       0.42050000       0.76520000
   141  C          0.86060000       0.44470000       0.16930000
   142  C          0.13940000       0.55530000       0.16930000
   143  C          0.36060000       0.05530000       0.16930000
   144  C          0.63940000       0.94470000       0.16930000
   145  C          0.86060000       0.94470000       0.66930000
   146  C          0.13940000       0.05530000       0.66930000
   147  C          0.36060000       0.55530000       0.66930000
   148  C          0.63940000       0.44470000       0.66930000
   149  C          0.89370000       0.53770000       0.41030000
   150  C          0.10630000       0.46230000       0.41030000
   151  C          0.39370000       0.96230000       0.41030000
   152  C          0.60630000       0.03770000       0.41030000
   153  C          0.89370000       0.03770000       0.91030000
   154  C          0.10630000       0.96230000       0.91030000
   155  C          0.39370000       0.46230000       0.91030000
   156  C          0.60630000       0.53770000       0.91030000
   157  C          0.84770000       0.47580000       0.49930000
   158  C          0.15230000       0.52420000       0.49930000
   159  C          0.34770000       0.02420000       0.49930000
   160  C          0.65230000       0.97580000       0.49930000
   161  C          0.84770000       0.97580000      -0.00070000
   162  C          0.15230000       0.02420000      -0.00070000
   163  C          0.34770000       0.52420000      -0.00070000
   164  C          0.65230000       0.47580000      -0.00070000
   165  I          0.60168150       0.31083000       0.34644000
   166  I          0.39831850       0.68917000       0.34644000
   167  I          0.10168150       0.18917000       0.34644000
   168  I          0.89831850       0.81083000       0.34644000
   169  I          0.60168150       0.81083000       0.84644000
   170  I          0.39831850       0.18917000       0.84644000
   171  I          0.10168150       0.68917000       0.84644000
   172  I          0.89831850       0.31083000       0.84644000
   173  I          0.50000000       0.50000000       0.34625000
   174  I         -0.00000000      -0.00000000       0.34625000
   175  I          0.50000000      -0.00000000       0.84625000
   176  I         -0.00000000       0.50000000       0.84625000
