data_HALTAP07
_symmetry_space_group_name_H-M    'P1'
_symmetry_Int_Tables_number       1
loop_
_symmetry_equiv_pos_site_id
_symmetry_equiv_pos_as_xyz
1 x,y,z
_cell_length_a                   10.25956
_cell_length_b                   13.6171
_cell_length_c                   11.03047
_cell_angle_alpha                90.0
_cell_angle_beta                 90.0
_cell_angle_gamma                90.0
loop_
_atom_site_label
_atom_site_type_symbol
_atom_site_fract_x
_atom_site_fract_y
_atom_site_fract_z
     1  I          0.15409170       0.31324000       0.67168140
     2  I          0.84590830       0.68676000       0.67168140
     3  I          0.65409170       0.18676000       0.67168140
     4  I          0.34590830       0.81324000       0.67168140
     5  I          0.15409170       0.81324000       0.17168140
     6  I          0.84590830       0.18676000       0.17168140
     7  I          0.65409170       0.68676000       0.17168140
     8  I          0.34590830       0.31324000       0.17168140
     9  I          0.36278180       0.29895000       0.52366130
    10  I          0.63721820       0.70105000       0.52366130
    11  I          0.86278180       0.20105000       0.52366130
    12  I          0.13721820       0.79895000       0.52366130
    13  I          0.36278180       0.79895000       0.02366130
    14  I          0.63721820       0.20105000       0.02366130
    15  I          0.86278180       0.70105000       0.02366130
    16  I          0.13721820       0.29895000       0.02366130
    17  I          0.60807140       0.30923000       0.34754000
    18  I          0.39192860       0.69077000       0.34754000
    19  I          0.10807140       0.19077000       0.34754000
    20  I          0.89192860       0.80923000       0.34754000
    21  I          0.60807140       0.80923000       0.84754000
    22  I          0.39192860       0.19077000       0.84754000
    23  I          0.10807140       0.69077000       0.84754000
    24  I          0.89192860       0.30923000       0.84754000
    25  I          0.50000000       0.50000000       0.34715000
    26  I         -0.00000000       0.00000000       0.34715000
    27  I          0.50000000      -0.00000000       0.84715000
    28  I         -0.00000000       0.50000000       0.84715000
    29  C          0.03840000       0.58380000       0.26730000
    30  C          0.96160000       0.41620000       0.26730000
    31  C          0.53840000       0.91620000       0.26730000
    32  C          0.46160000       0.08380000       0.26730000
    33  C          0.03840000       0.08380000       0.76730000
    34  C          0.96160000       0.91620000       0.76730000
    35  C          0.53840000       0.41620000       0.76730000
    36  C          0.46160000       0.58380000       0.76730000
    37  H          0.08149900       0.63031900       0.31875400
    38  H          0.91850100       0.36968100       0.31875400
    39  H          0.58149900       0.86968100       0.31875400
    40  H          0.41850100       0.13031900       0.31875400
    41  H          0.08149900       0.13031900       0.81875400
    42  H          0.91850100       0.86968100       0.81875400
    43  H          0.58149900       0.36968100       0.81875400
    44  H          0.41850100       0.63031900       0.81875400
    45  H          0.96204500       0.61386400       0.23184300
    46  H          0.03795500       0.38613600       0.23184300
    47  H          0.46204500       0.88613600       0.23184300
    48  H          0.53795500       0.11386400       0.23184300
    49  H          0.96204500       0.11386400       0.73184300
    50  H          0.03795500       0.88613600       0.73184300
    51  H          0.46204500       0.38613600       0.73184300
    52  H          0.53795500       0.61386400       0.73184300
    53  N         -0.00000000       0.50000000       0.33650000
    54  N          0.50000000       0.00000000       0.33650000
    55  N         -0.00000000      -0.00000000       0.83650000
    56  N          0.50000000       0.50000000       0.83650000
    57  C          0.13540000       0.54880000       0.16240000
    58  C          0.86460000       0.45120000       0.16240000
    59  C          0.63540000       0.95120000       0.16240000
    60  C          0.36460000       0.04880000       0.16240000
    61  C          0.13540000       0.04880000       0.66240000
    62  C          0.86460000       0.95120000       0.66240000
    63  C          0.63540000       0.45120000       0.66240000
    64  C          0.36460000       0.54880000       0.66240000
    65  H          0.19074500       0.60212900       0.13886100
    66  H          0.80925500       0.39787100       0.13886100
    67  H          0.69074500       0.89787100       0.13886100
    68  H          0.30925500       0.10212900       0.13886100
    69  H          0.19074500       0.10212900       0.63886100
    70  H          0.80925500       0.89787100       0.63886100
    71  H          0.69074500       0.39787100       0.63886100
    72  H          0.30925500       0.60212900       0.63886100
    73  H          0.08568700       0.52748300       0.09239800
    74  H          0.91431300       0.47251700       0.09239800
    75  H          0.58568700       0.97251700       0.09239800
    76  H          0.41431300       0.02748300       0.09239800
    77  H          0.08568700       0.02748300       0.59239800
    78  H          0.91431300       0.97251700       0.59239800
    79  H          0.58568700       0.47251700       0.59239800
    80  H          0.41431300       0.52748300       0.59239800
    81  H          0.18785600       0.49475200       0.19004900
    82  H          0.81214400       0.50524800       0.19004900
    83  H          0.68785600       0.00524800       0.19004900
    84  H          0.31214400      -0.00524800       0.19004900
    85  H          0.18785600      -0.00524800       0.69004900
    86  H          0.81214400       0.00524800       0.69004900
    87  H          0.68785600       0.50524800       0.69004900
    88  H          0.31214400       0.49475200       0.69004900
    89  C          0.10930000       0.46890000       0.42030000
    90  C          0.89070000       0.53110000       0.42030000
    91  C          0.60930000       0.03110000       0.42030000
    92  C          0.39070000       0.96890000       0.42030000
    93  C          0.10930000       0.96890000       0.92030000
    94  C          0.89070000       0.03110000       0.92030000
    95  C          0.60930000       0.53110000       0.92030000
    96  C          0.39070000       0.46890000       0.92030000
    97  H          0.18118800       0.44506400       0.37183500
    98  H          0.81881200       0.55493600       0.37183500
    99  H          0.68118800       0.05493600       0.37183500
   100  H          0.31881200       0.94506400       0.37183500
   101  H          0.18118800       0.94506400       0.87183500
   102  H          0.81881200       0.05493600       0.87183500
   103  H          0.68118800       0.55493600       0.87183500
   104  H          0.31881200       0.44506400       0.87183500
   105  H          0.07799700       0.41303100       0.46856900
   106  H          0.92200300       0.58696900       0.46856900
   107  H          0.57799700       0.08696900       0.46856900
   108  H          0.42200300       0.91303100       0.46856900
   109  H          0.07799700       0.91303100       0.96856900
   110  H          0.92200300       0.08696900       0.96856900
   111  H          0.57799700       0.58696900       0.96856900
   112  H          0.42200300       0.41303100       0.96856900
   113  C          0.15440000       0.54211000       0.50050000
   114  C          0.84560000       0.45789000       0.50050000
   115  C          0.65440000       0.95789000       0.50050000
   116  C          0.34560000       0.04211000       0.50050000
   117  C          0.15440000       0.04211000       0.00050000
   118  C          0.84560000       0.95789000       0.00050000
   119  C          0.65440000       0.45789000       0.00050000
   120  C          0.34560000       0.54211000       0.00050000
   121  H          0.23164000       0.51976200       0.54019200
   122  H          0.76836000       0.48023800       0.54019200
   123  H          0.73164000       0.98023800       0.54019200
   124  H          0.26836000       0.01976200       0.54019200
   125  H          0.23164000       0.01976200       0.04019200
   126  H          0.76836000       0.98023800       0.04019200
   127  H          0.73164000       0.48023800       0.04019200
   128  H          0.26836000       0.51976200       0.04019200
   129  H          0.08826300       0.55648700       0.55915100
   130  H          0.91173700       0.44351300       0.55915100
   131  H          0.58826300       0.94351300       0.55915100
   132  H          0.41173700       0.05648700       0.55915100
   133  H          0.08826300       0.05648700       0.05915100
   134  H          0.91173700       0.94351300       0.05915100
   135  H          0.58826300       0.44351300       0.05915100
   136  H          0.41173700       0.55648700       0.05915100
   137  H          0.17350200       0.60042500       0.45440800
   138  H          0.82649800       0.39957500       0.45440800
   139  H          0.67350200       0.89957500       0.45440800
   140  H          0.32649800       0.10042500       0.45440800
   141  H          0.17350200       0.10042500       0.95440800
   142  H          0.82649800       0.89957500       0.95440800
   143  H          0.67350200       0.39957500       0.95440800
   144  H          0.32649800       0.60042500       0.95440800
   145  C          0.96160000       0.41780000       0.26730000
   146  C          0.03840000       0.58220000       0.26730000
   147  C          0.46160000       0.08220000       0.26730000
   148  C          0.53840000       0.91780000       0.26730000
   149  C          0.96160000       0.91780000       0.76730000
   150  C          0.03840000       0.08220000       0.76730000
   151  C          0.46160000       0.58220000       0.76730000
   152  C          0.53840000       0.41780000       0.76730000
   153  C          0.86460000       0.45280000       0.16240000
   154  C          0.13540000       0.54720000       0.16240000
   155  C          0.36460000       0.04720000       0.16240000
   156  C          0.63540000       0.95280000       0.16240000
   157  C          0.86460000       0.95280000       0.66240000
   158  C          0.13540000       0.04720000       0.66240000
   159  C          0.36460000       0.54720000       0.66240000
   160  C          0.63540000       0.45280000       0.66240000
   161  C          0.89070000       0.53290000       0.42030000
   162  C          0.10930000       0.46710000       0.42030000
   163  C          0.39070000       0.96710000       0.42030000
   164  C          0.60930000       0.03290000       0.42030000
   165  C          0.89070000       0.03290000       0.92030000
   166  C          0.10930000       0.96710000       0.92030000
   167  C          0.39070000       0.46710000       0.92030000
   168  C          0.60930000       0.53290000       0.92030000
