data_HALTAP03
_symmetry_space_group_name_H-M    'P1'
_symmetry_Int_Tables_number       1
loop_
_symmetry_equiv_pos_site_id
_symmetry_equiv_pos_as_xyz
1 x,y,z
_cell_length_a                   11.09202
_cell_length_b                   14.9333
_cell_length_c                   11.97642
_cell_angle_alpha                90.0
_cell_angle_beta                 90.0
_cell_angle_gamma                90.0
loop_
_atom_site_label
_atom_site_type_symbol
_atom_site_fract_x
_atom_site_fract_y
_atom_site_fract_z
     1  I          0.15963700       0.30926190       0.66849600
     2  I          0.84036300       0.69073810       0.66849600
     3  I          0.65963700       0.19073810       0.66849600
     4  I          0.34036300       0.80926190       0.66849600
     5  I          0.15963700       0.80926190       0.16849600
     6  I          0.84036300       0.19073810       0.16849600
     7  I          0.65963700       0.69073810       0.16849600
     8  I          0.34036300       0.30926190       0.16849600
     9  I          0.35177700       0.30034190       0.52696500
    10  I          0.64822300       0.69965810       0.52696500
    11  I          0.85177700       0.19965810       0.52696500
    12  I          0.14822300       0.80034190       0.52696500
    13  I          0.35177700       0.80034190       0.02696500
    14  I          0.64822300       0.19965810       0.02696500
    15  I          0.85177700       0.69965810       0.02696500
    16  I          0.14822300       0.30034190       0.02696500
    17  C          0.04491100       0.57620000       0.26581000
    18  C          0.95508900       0.42380000       0.26581000
    19  C          0.54491100       0.92380000       0.26581000
    20  C          0.45508900       0.07620000       0.26581000
    21  C          0.04491100       0.07620000       0.76581000
    22  C          0.95508900       0.92380000       0.76581000
    23  C          0.54491100       0.42380000       0.76581000
    24  C          0.45508900       0.57620000       0.76581000
    25  H          0.07993900       0.62049500       0.31477800
    26  H          0.92006100       0.37950500       0.31477800
    27  H          0.57993900       0.87950500       0.31477800
    28  H          0.42006100       0.12049500       0.31477800
    29  H          0.07993900       0.12049500       0.81477800
    30  H          0.92006100       0.87950500       0.81477800
    31  H          0.57993900       0.37950500       0.81477800
    32  H          0.42006100       0.62049500       0.81477800
    33  H          0.97613900       0.60321000       0.22917200
    34  H          0.02386100       0.39679000       0.22917200
    35  H          0.47613900       0.89679000       0.22917200
    36  H          0.52386100       0.10321000       0.22917200
    37  H          0.97613900       0.10321000       0.72917200
    38  H          0.02386100       0.89679000       0.72917200
    39  H          0.47613900       0.39679000       0.72917200
    40  H          0.52386100       0.60321000       0.72917200
    41  N          0.00000000       0.50000000       0.33621300
    42  N          0.50000000       0.00000000       0.33621300
    43  N         -0.00000000      -0.00000000       0.83621300
    44  N          0.50000000       0.50000000       0.83621300
    45  C          0.13571400       0.55230000       0.17861500
    46  C          0.86428600       0.44770000       0.17861500
    47  C          0.63571400       0.94770000       0.17861500
    48  C          0.36428600       0.05230000       0.17861500
    49  C          0.13571400       0.05230000       0.67861500
    50  C          0.86428600       0.94770000       0.67861500
    51  C          0.63571400       0.44770000       0.67861500
    52  C          0.36428600       0.55230000       0.67861500
    53  H          0.09746300       0.51879500       0.12027600
    54  H          0.90253700       0.48120500       0.12027600
    55  H          0.59746300       0.98120500       0.12027600
    56  H          0.40253700       0.01879500       0.12027600
    57  H          0.09746300       0.01879500       0.62027600
    58  H          0.90253700       0.98120500       0.62027600
    59  H          0.59746300       0.48120500       0.62027600
    60  H          0.40253700       0.51879500       0.62027600
    61  H          0.19879800       0.51726400       0.21150200
    62  H          0.80120200       0.48273600       0.21150200
    63  H          0.69879800       0.98273600       0.21150200
    64  H          0.30120200       0.01726400       0.21150200
    65  H          0.19879800       0.01726400       0.71150200
    66  H          0.80120200       0.98273600       0.71150200
    67  H          0.69879800       0.48273600       0.71150200
    68  H          0.30120200       0.51726400       0.71150200
    69  H          0.16928300       0.60642400       0.14804300
    70  H          0.83071700       0.39357600       0.14804300
    71  H          0.66928300       0.89357600       0.14804300
    72  H          0.33071700       0.10642400       0.14804300
    73  H          0.16928300       0.10642400       0.64804300
    74  H          0.83071700       0.89357600       0.64804300
    75  H          0.66928300       0.39357600       0.64804300
    76  H          0.33071700       0.60642400       0.64804300
    77  C          0.10041000       0.46420000       0.40881100
    78  C          0.89959000       0.53580000       0.40881100
    79  C          0.60041000       0.03580000       0.40881100
    80  C          0.39959000       0.96420000       0.40881100
    81  C          0.10041000       0.96420000       0.90881100
    82  C          0.89959000       0.03580000       0.90881100
    83  C          0.60041000       0.53580000       0.90881100
    84  C          0.39959000       0.46420000       0.90881100
    85  H          0.16497900       0.44348400       0.36063400
    86  H          0.83502100       0.55651600       0.36063400
    87  H          0.66497900       0.05651600       0.36063400
    88  H          0.33502100       0.94348400       0.36063400
    89  H          0.16497900       0.94348400       0.86063400
    90  H          0.83502100       0.05651600       0.86063400
    91  H          0.66497900       0.55651600       0.86063400
    92  H          0.33502100       0.44348400       0.86063400
    93  H          0.07030200       0.41270700       0.44947800
    94  H          0.92969800       0.58729300       0.44947800
    95  H          0.57030200       0.08729300       0.44947800
    96  H          0.42969800       0.91270700       0.44947800
    97  H          0.07030200       0.91270700       0.94947800
    98  H          0.92969800       0.08729300       0.94947800
    99  H          0.57030200       0.58729300       0.94947800
   100  H          0.42969800       0.41270700       0.94947800
   101  C          0.15291300       0.53030000       0.49231500
   102  C          0.84708700       0.46970000       0.49231500
   103  C          0.65291300       0.96970000       0.49231500
   104  C          0.34708700       0.03030000       0.49231500
   105  C          0.15291300       0.03030000      -0.00768500
   106  C          0.84708700       0.96970000      -0.00768500
   107  C          0.65291300       0.46970000      -0.00768500
   108  C          0.34708700       0.53030000      -0.00768500
   109  H          0.22947000       0.50866800       0.51813300
   110  H          0.77053000       0.49133200       0.51813300
   111  H          0.72947000      -0.00866800       0.51813300
   112  H          0.27053000       0.00866800       0.51813300
   113  H          0.22947000       0.00866800       0.01813300
   114  H          0.77053000      -0.00866800       0.01813300
   115  H          0.72947000       0.49133200       0.01813300
   116  H          0.27053000       0.50866800       0.01813300
   117  H          0.09889800       0.53632800       0.55447200
   118  H          0.90110200       0.46367200       0.55447200
   119  H          0.59889800       0.96367200       0.55447200
   120  H          0.40110200       0.03632800       0.55447200
   121  H          0.09889800       0.03632800       0.05447200
   122  H          0.90110200       0.96367200       0.05447200
   123  H          0.59889800       0.46367200       0.05447200
   124  H          0.40110200       0.53632800       0.05447200
   125  H          0.16336000       0.58741300       0.45694100
   126  H          0.83664000       0.41258700       0.45694100
   127  H          0.66336000       0.91258700       0.45694100
   128  H          0.33664000       0.08741300       0.45694100
   129  H          0.16336000       0.08741300       0.95694100
   130  H          0.83664000       0.91258700       0.95694100
   131  H          0.66336000       0.41258700       0.95694100
   132  H          0.33664000       0.58741300       0.95694100
   133  I          0.58593600       0.31633120       0.34664160
   134  I          0.41406400       0.68366880       0.34664160
   135  I          0.08593600       0.18366880       0.34664160
   136  I          0.91406400       0.81633120       0.34664160
   137  I          0.58593600       0.81633120       0.84664160
   138  I          0.41406400       0.18366880       0.84664160
   139  I          0.08593600       0.68366880       0.84664160
   140  I          0.91406400       0.31633120       0.84664160
   141  I          0.50000000       0.50000000       0.34614170
   142  I          0.00000000       0.00000000       0.34614170
   143  I          0.50000000      -0.00000000       0.84614170
   144  I          0.00000000       0.50000000       0.84614170
