data_HANFOS10
_symmetry_space_group_name_H-M    'P1'
_symmetry_Int_Tables_number       1
loop_
_symmetry_equiv_pos_site_id
_symmetry_equiv_pos_as_xyz
1 x,y,z
_cell_length_a                   6.44204
_cell_length_b                   9.24495
_cell_length_c                   18.540911
_cell_angle_alpha                82.3612
_cell_angle_beta                 84.4152
_cell_angle_gamma                80.3692
loop_
_atom_site_label
_atom_site_type_symbol
_atom_site_fract_x
_atom_site_fract_y
_atom_site_fract_z
     1  Cl         0.10516700       0.09160500       0.40607200
     2  Cl         0.89483300       0.90839500       0.59392800
     3  O          0.86226190       0.32481130       0.20105700
     4  O          0.13773810       0.67518870       0.79894300
     5  O          0.95212000       0.40774130       0.08938600
     6  O          0.04788000       0.59225870       0.91061400
     7  N          0.79272000       0.56376140       0.17166700
     8  N          0.20728000       0.43623860       0.82833300
     9  N          0.87322000       0.69133150       0.05002700
    10  N          0.12678000       0.30866850       0.94997300
    11  H          0.91330000       0.61381700       0.02851100
    12  H          0.08670000       0.38618300       0.97148900
    13  N          0.71782000       0.81484140       0.13893700
    14  N          0.28218000       0.18515860       0.86106300
    15  N          0.87242000       0.42881150       0.15201700
    16  N          0.12758000       0.57118850       0.84798300
    17  N          0.06222000       0.97700150       0.28773700
    18  N          0.93778000       0.02299850       0.71226300
    19  C          0.79932000       0.68025170       0.11981800
    20  C          0.20068000       0.31974830       0.88018200
    21  C          0.82033000       0.84142180       0.01362900
    22  C          0.17967000       0.15857820       0.98637100
    23  H          0.71106600       0.84696200       0.97887200
    24  H          0.28893400       0.15303800       0.02112800
    25  H          0.94660900       0.87713500       0.98722900
    26  H          0.05339100       0.12286500       0.01277100
    27  C          0.73603000       0.93023170       0.07757800
    28  C          0.26397000       0.06976830       0.92242200
    29  H          0.83593600      -0.00454400       0.08630000
    30  H          0.16406400       0.00454400       0.91370000
    31  H          0.59705400      -0.00911500       0.06854700
    32  H          0.40294600       0.00911500       0.93145300
    33  C          0.61112000       0.84454180       0.20921900
    34  C          0.38888000       0.15545820       0.79078100
    35  H          0.57278500       0.75104800       0.23537800
    36  H          0.42721500       0.24895200       0.76462200
    37  H          0.47826100       0.91356600       0.20090200
    38  H          0.52173900       0.08643400       0.79909800
    39  C          0.73813000       0.90958170       0.25761800
    40  C          0.26187000       0.09041830       0.74238200
    41  C          0.63653000       0.95767180       0.32208900
    42  C          0.36347000       0.04232820       0.67791100
    43  H          0.49119400       0.95135400       0.33381100
    44  H          0.50880600       0.04864600       0.66618900
    45  C          0.74753000       0.01436190       0.36870900
    46  C          0.25247000       0.98563810       0.63129100
    47  H          0.68233000       0.04750400       0.41302300
    48  H          0.31767000       0.95249600       0.58697700
    49  C          0.95883000       0.02080170       0.34793900
    50  C          0.04117000       0.97919830       0.65206100
    51  C          0.95013000       0.92170180       0.24308900
    52  C          0.04987000       0.07829820       0.75691100
    53  H          0.02034800       0.88928300       0.19925700
    54  H          0.97965200       0.11071700       0.80074300
    55  Cl         0.60688700       0.72551500       0.50618200
    56  Cl         0.39311300       0.27448500       0.49381800
    57  O          0.26727190       0.85194130       0.07101700
    58  O          0.73272810       0.14805870       0.92898300
    59  O          0.40852000       0.64406140       0.03162600
    60  O          0.59148000       0.35593860       0.96837400
    61  N          0.27462000       0.65293140       0.14989700
    62  N          0.72538000       0.34706860       0.85010300
    63  N          0.43112000       0.40317150       0.12279700
    64  N          0.56888000       0.59682850       0.87720300
    65  H          0.46530000       0.42620000       0.07736000
    66  H          0.53470000       0.57380000       0.92264000
    67  N          0.27462000       0.44182140       0.23063700
    68  N          0.72538000       0.55817860       0.76936300
    69  N          0.31942000       0.71560150       0.08165700
    70  N          0.68058000       0.28439850       0.91834300
    71  N          0.58672000       0.59708150       0.39038700
    72  N          0.41328000       0.40291850       0.60961300
    73  C          0.32872000       0.50480170       0.16359800
    74  C          0.67128000       0.49519830       0.83640200
    75  C          0.43283000       0.25385180       0.16100900
    76  C          0.56717000       0.74614820       0.83899100
    77  H          0.57677000       0.19602900       0.15882200
    78  H          0.42323000       0.80397100       0.84117800
    79  H          0.33609400       0.20047200       0.14022400
    80  H          0.66390600       0.79952800       0.85977600
    81  C          0.35563000       0.28329180       0.23940900
    82  C          0.64437000       0.71670820       0.76059100
    83  H          0.24282800       0.22498000       0.25927100
    84  H          0.75717200       0.77502000       0.74072900
    85  H          0.47292900       0.25990500       0.27187400
    86  H          0.52707100       0.74009500       0.72812600
    87  C          0.14392000       0.51561190       0.28735800
    88  C          0.85608000       0.48438810       0.71264200
    89  H          0.04864600       0.44808000       0.31263400
    90  H          0.95135400       0.55192000       0.68736600
    91  H          0.05440700       0.60364400       0.26399000
    92  H          0.94559300       0.39635600       0.73601000
    93  C          0.26353000       0.56412170       0.34382800
    94  C          0.73647000       0.43587830       0.65617200
    95  C          0.14693000       0.63103190       0.40131900
    96  C          0.85307000       0.36896810       0.59868100
    97  H         -0.00290800       0.64248700       0.40512300
    98  H          0.00290800       0.35751300       0.59487700
    99  C          0.25103000       0.68045190       0.45258900
   100  C          0.74897000       0.31954810       0.54741100
   101  H          0.17622700       0.72587100       0.49253100
   102  H          0.82377300       0.27412900       0.50746900
   103  C          0.46953000       0.66082180       0.44315900
   104  C          0.53047000       0.33917820       0.55684100
   105  C          0.48133000       0.54860170       0.34108800
   106  C          0.51867000       0.45139830       0.65891200
   107  H          0.56110200       0.50137000       0.30251800
   108  H          0.43889800       0.49863000       0.69748200
