data_HANFOS07
_symmetry_space_group_name_H-M    'P1'
_symmetry_Int_Tables_number       1
loop_
_symmetry_equiv_pos_site_id
_symmetry_equiv_pos_as_xyz
1 x,y,z
_cell_length_a                   4.84985
_cell_length_b                   21.1202
_cell_length_c                   10.56171
_cell_angle_alpha                90.0
_cell_angle_beta                 98.201514
_cell_angle_gamma                90.0
loop_
_atom_site_label
_atom_site_type_symbol
_atom_site_fract_x
_atom_site_fract_y
_atom_site_fract_z
     1  Cl         0.04174800       0.53733200       0.84066400
     2  Cl         0.95825200       0.03733200       0.65933600
     3  Cl         0.95825200       0.46266800       0.15933600
     4  Cl         0.04174800       0.96266800       0.34066400
     5  O          0.10152000       0.18663600       0.59387110
     6  O          0.89848000       0.68663600       0.90612890
     7  O          0.89848000       0.81336400       0.40612890
     8  O          0.10152000       0.31336400       0.09387110
     9  O          0.11752000       0.21197600       0.39636110
    10  O          0.88248000       0.71197600       0.10363890
    11  O          0.88248000       0.78802400       0.60363890
    12  O          0.11752000       0.28802400       0.89636110
    13  N          0.40853000       0.25810600       0.55943120
    14  N          0.59147000       0.75810600       0.94056880
    15  N          0.59147000       0.74189400       0.44056880
    16  N          0.40853000       0.24189400       0.05943120
    17  N          0.50623000       0.28933600       0.34559120
    18  N          0.49377000       0.78933600       0.15440880
    19  N          0.49377000       0.71066400       0.65440880
    20  N          0.50623000       0.21066400       0.84559120
    21  H          0.37430000       0.26859000       0.30371700
    22  H          0.62570000       0.76859000       0.19628300
    23  H          0.62570000       0.73141000       0.69628300
    24  H          0.37430000       0.23141000       0.80371700
    25  N          0.72203000       0.33437600       0.51946120
    26  N          0.27797000       0.83437600       0.98053880
    27  N          0.27797000       0.66562400       0.48053880
    28  N          0.72203000       0.16562400       0.01946120
    29  N          0.20313000       0.21771600       0.51248120
    30  N          0.79687000       0.71771600      -0.01248120
    31  N          0.79687000       0.78228400       0.48751880
    32  N          0.20313000       0.28228400       0.01248120
    33  N          0.29993000       0.48366600       0.66850130
    34  N          0.70007000       0.98366600       0.83149870
    35  N          0.70007000       0.51633400       0.33149870
    36  N          0.29993000       0.01633400       0.16850130
    37  C          0.53193000       0.29092700       0.47295140
    38  C          0.46807000       0.79092700       0.02704860
    39  C          0.46807000       0.70907300       0.52704860
    40  C          0.53193000       0.20907300       0.97295140
    41  C          0.85253000       0.36319700       0.41646140
    42  C          0.14747000       0.86319700       0.08353860
    43  C          0.14747000       0.63680300       0.58353860
    44  C          0.85253000       0.13680300       0.91646140
    45  H          0.04366100       0.34689100       0.41579200
    46  H          0.95633900       0.84689100       0.08420800
    47  H          0.95633900       0.65310900       0.58420800
    48  H          0.04366100       0.15310900       0.91579200
    49  H          0.85867800       0.40991000       0.42408800
    50  H          0.14132200       0.90991000       0.07591200
    51  H          0.14132200       0.59009000       0.57591200
    52  H          0.85867800       0.09009000       0.92408800
    53  C          0.65613000       0.34207800       0.29686150
    54  C          0.34387000       0.84207800       0.20313850
    55  C          0.34387000       0.65792200       0.70313850
    56  C          0.65613000       0.15792200       0.79686150
    57  H          0.52729200       0.37652100       0.26371300
    58  H          0.47270800       0.87652100       0.23628700
    59  H          0.47270800       0.62347900       0.73628700
    60  H          0.52729200       0.12347900       0.76371300
    61  H          0.76181700       0.32798600       0.22837400
    62  H          0.23818300       0.82798600       0.27162600
    63  H          0.23818300       0.67201400       0.77162600
    64  H          0.76181700       0.17201400       0.72837400
    65  C          0.80273000       0.34692700       0.65505140
    66  C          0.19727000       0.84692700       0.84494860
    67  C          0.19727000       0.65307300       0.34494860
    68  C          0.80273000       0.15307300       0.15505140
    69  H         -0.00348500       0.36296400       0.66912500
    70  H          0.00348500       0.86296400       0.83087500
    71  H          0.00348500       0.63703600       0.33087500
    72  H         -0.00348500       0.13703600       0.16912500
    73  H          0.79815800       0.30679800       0.70316200
    74  H          0.20184200       0.80679800       0.79683800
    75  H          0.20184200       0.69320200       0.29683800
    76  H          0.79815800       0.19320200       0.20316200
    77  C          0.61413000       0.39475700       0.70668140
    78  C          0.38587000       0.89475700       0.79331860
    79  C          0.38587000       0.60524300       0.29331860
    80  C          0.61413000       0.10524300       0.20668140
    81  C          0.57503000       0.39428800       0.83476150
    82  C          0.42497000       0.89428800       0.66523850
    83  C          0.42497000       0.60571200       0.16523850
    84  C          0.57503000       0.10571200       0.33476150
    85  H          0.67055300       0.36430500       0.89214100
    86  H          0.32944700       0.86430500       0.60785900
    87  H          0.32944700       0.63569500       0.10785900
    88  H          0.67055300       0.13569500       0.39214100
    89  C          0.39583000       0.43786800       0.87805150
    90  C          0.60417000       0.93786800       0.62194850
    91  C          0.60417000       0.56213200       0.12194850
    92  C          0.39583000       0.06213200       0.37805150
    93  H          0.36308700       0.43810500       0.96462500
    94  H          0.63691300       0.93810500       0.53537500
    95  H          0.63691300       0.56189500       0.03537500
    96  H          0.36308700       0.06189500       0.46462500
    97  C          0.26653000       0.48090700       0.79036150
    98  C          0.73347000       0.98090700       0.70963850
    99  C          0.73347000       0.51909300       0.20963850
   100  C          0.26653000       0.01909300       0.29036150
   101  C          0.47163000       0.44062800       0.62850150
   102  C          0.52837000       0.94062800       0.87149850
   103  C          0.52837000       0.55937200       0.37149850
   104  C          0.47163000       0.05937200       0.12850150
   105  H          0.49758100       0.44150700       0.54105200
   106  H          0.50241900       0.94150700       0.95894800
   107  H          0.50241900       0.55849300       0.45894800
   108  H          0.49758100       0.05849300       0.04105200
