data_HANFOS06
_symmetry_space_group_name_H-M    'P1'
_symmetry_Int_Tables_number       1
loop_
_symmetry_equiv_pos_site_id
_symmetry_equiv_pos_as_xyz
1 x,y,z
_cell_length_a                   11.32645
_cell_length_b                   10.46525
_cell_length_c                   9.86345
_cell_angle_alpha                90.0
_cell_angle_beta                 112.18901
_cell_angle_gamma                90.0
loop_
_atom_site_label
_atom_site_type_symbol
_atom_site_fract_x
_atom_site_fract_y
_atom_site_fract_z
     1  Cl         0.61830300       0.79481300       0.68823300
     2  Cl         0.38169700       0.29481300       0.81176700
     3  Cl         0.38169700       0.20518700       0.31176700
     4  Cl         0.61830300       0.70518700       0.18823300
     5  O          0.92001900       0.88078110       0.05228110
     6  O          0.07998100       0.38078110       0.44771890
     7  O          0.07998100       0.11921890       0.94771890
     8  O          0.92001900       0.61921890       0.55228110
     9  O          0.93846890       0.80683100       0.85584900
    10  O          0.06153110       0.30683100       0.64415100
    11  O          0.06153110       0.19316900       0.14415100
    12  O          0.93846890       0.69316900       0.35584900
    13  N          0.04497100       0.71553100       0.07887110
    14  N          0.95502900       0.21553100       0.42112890
    15  N          0.95502900       0.28446900       0.92112890
    16  N          0.04497100       0.78446900       0.57887110
    17  N          0.12199100       0.64556100       0.88942890
    18  N          0.87800900       0.14556100       0.61057110
    19  N          0.87800900       0.35443900       0.11057110
    20  N          0.12199100       0.85443900       0.38942890
    21  H          0.07541500       0.69311400       0.81928500
    22  H          0.92458500       0.19311400       0.68071500
    23  H          0.92458500       0.30688600       0.18071500
    24  H          0.07541500       0.80688600       0.31928500
    25  N          0.17101100       0.53914100       0.09594110
    26  N          0.82898900       0.03914100       0.40405890
    27  N          0.82898900       0.46085900       0.90405890
    28  N          0.17101100       0.96085900       0.59594110
    29  N          0.96603900       0.80433100      -0.00963120
    30  N          0.03396100       0.30433100       0.50963120
    31  N          0.03396100       0.19566900       0.00963120
    32  N          0.96603900       0.69566900       0.49036880
    33  N          0.45272100       0.74961110       0.42514110
    34  N          0.54727900       0.24961110       0.07485890
    35  N          0.54727900       0.25038890       0.57485890
    36  N          0.45272100       0.75038890       0.92514110
    37  C          0.10620110       0.63897110       0.01650120
    38  C          0.89379890       0.13897110       0.48349880
    39  C          0.89379890       0.36102890       0.98349880
    40  C          0.10620110       0.86102890       0.51650120
    41  C          0.24969130       0.47866130       0.02549140
    42  C          0.75030870       0.97866130       0.47450860
    43  C          0.75030870       0.52133870       0.97450860
    44  C          0.24969130       0.02133870       0.52549140
    45  H          0.24022700       0.38454600       0.02287400
    46  H          0.75977300       0.88454600       0.47712600
    47  H          0.75977300       0.61545400       0.97712600
    48  H          0.24022700       0.11545400       0.52287400
    49  H          0.34083100       0.50085500       0.07635000
    50  H          0.65916900       0.00085500       0.42365000
    51  H          0.65916900       0.49914500       0.92365000
    52  H          0.34083100      -0.00085500       0.57635000
    53  C          0.19530120       0.53575120       0.87097870
    54  C          0.80469880       0.03575120       0.62902130
    55  C          0.80469880       0.46424880       0.12902130
    56  C          0.19530120       0.96424880       0.37097870
    57  H          0.26420100       0.56329500       0.83878700
    58  H          0.73579900       0.06329500       0.66121300
    59  H          0.73579900       0.43670500       0.16121300
    60  H          0.26420100       0.93670500       0.33878700
    61  H          0.13962400       0.47383800       0.79935500
    62  H          0.86037600       0.97383800       0.70064500
    63  H          0.86037600       0.52616200       0.20064500
    64  H          0.13962400       0.02616200       0.29935500
    65  C          0.18447120       0.51259120       0.24598120
    66  C          0.81552880       0.01259120       0.25401880
    67  C          0.81552880       0.48740880       0.75401880
    68  C          0.18447120      -0.01259120       0.74598120
    69  H          0.19500400       0.41933100       0.26312000
    70  H          0.80499600       0.91933100       0.23688000
    71  H          0.80499600       0.58066900       0.73688000
    72  H          0.19500400       0.08066900       0.76312000
    73  H          0.10494300       0.53824700       0.25821200
    74  H          0.89505700       0.03824700       0.24178800
    75  H          0.89505700       0.46175300       0.74178800
    76  H          0.10494300       0.96175300       0.75821200
    77  C          0.29585110       0.58037110       0.36066130
    78  C          0.70414890       0.08037110       0.13933870
    79  C          0.70414890       0.41962890       0.63933870
    80  C          0.29585110       0.91962890       0.86066130
    81  C          0.33923110       0.54265120       0.50759130
    82  C          0.66076890       0.04265120      -0.00759130
    83  C          0.66076890       0.45734880       0.49240870
    84  C          0.33923110       0.95734880       0.00759130
    85  H          0.30079400       0.47230100       0.53604100
    86  H          0.69920600       0.97230100       0.96395900
    87  H          0.69920600       0.52769900       0.46395900
    88  H          0.30079400       0.02769900       0.03604100
    89  C          0.43863110       0.60865120       0.61123130
    90  C          0.56136890       0.10865120       0.88876870
    91  C          0.56136890       0.39134880       0.38876870
    92  C          0.43863110       0.89134880       0.11123130
    93  H          0.46985700       0.58533600       0.71173300
    94  H          0.53014300       0.08533600       0.78826700
    95  H          0.53014300       0.41466400       0.28826700
    96  H          0.46985700       0.91466400       0.21173300
    97  C          0.49080110       0.71032120       0.56216130
    98  C          0.50919890       0.21032120       0.93783870
    99  C          0.50919890       0.28967880       0.43783870
   100  C          0.49080110       0.78967880       0.06216130
   101  C          0.35604120       0.68377120       0.32680130
   102  C          0.64395880       0.18377120       0.17319870
   103  C          0.64395880       0.31622880       0.67319870
   104  C          0.35604120       0.81622880       0.82680130
   105  H          0.32711500       0.71001000       0.22733200
   106  H          0.67288500       0.21001000       0.27266800
   107  H          0.67288500       0.28999000       0.77266800
   108  H          0.32711500       0.78999000       0.72733200
