data_HANFOS08
_symmetry_space_group_name_H-M    'P1'
_symmetry_Int_Tables_number       1
loop_
_symmetry_equiv_pos_site_id
_symmetry_equiv_pos_as_xyz
1 x,y,z
_cell_length_a                   10.0544
_cell_length_b                   9.9634
_cell_length_c                   10.8334
_cell_angle_alpha                90.0
_cell_angle_beta                 96.8935
_cell_angle_gamma                90.0
loop_
_atom_site_label
_atom_site_type_symbol
_atom_site_fract_x
_atom_site_fract_y
_atom_site_fract_z
     1  Cl         0.24421800       0.72656700       0.24487700
     2  Cl         0.75578200       0.22656700       0.25512300
     3  Cl         0.75578200       0.27343300       0.75512300
     4  Cl         0.24421800       0.77343300       0.74487700
     5  O          0.50592000       0.07682190       0.79294190
     6  O          0.49408000       0.57682190       0.70705810
     7  O          0.49408000       0.92317810       0.20705810
     8  O          0.50592000       0.42317810       0.29294190
     9  O          0.46342000       0.26242000       0.88638190
    10  O          0.53658000       0.76242000       0.61361810
    11  O          0.53658000       0.73758000       0.11361810
    12  O          0.46342000       0.23758000       0.38638190
    13  N          0.32772000       0.20812000       0.72012000
    14  N          0.67228000       0.70812000       0.77988000
    15  N          0.67228000       0.79188000       0.27988000
    16  N          0.32772000       0.29188000       0.22012000
    17  N          0.18762000       0.14842000       0.54512000
    18  N          0.81238000       0.64842000       0.95488000
    19  N          0.81238000       0.85158000       0.45488000
    20  N          0.18762000       0.35158000       0.04512000
    21  N          0.36653000       0.02222000       0.58092000
    22  N          0.63347000       0.52222000       0.91908000
    23  N          0.63347000       0.97778000       0.41908000
    24  N          0.36653000       0.47778000       0.08092000
    25  H          0.42430000      -0.00430000       0.62830000
    26  H          0.57570000       0.49570000       0.87170000
    27  H          0.57570000       0.00430000       0.37170000
    28  H          0.42430000       0.50430000       0.12830000
    29  N          0.43662000       0.17982000       0.80112000
    30  N          0.56338000       0.67982000       0.69888000
    31  N          0.56338000       0.82018000       0.19888000
    32  N          0.43662000       0.32018000       0.30112000
    33  N          0.09622000       0.52453000       0.29622000
    34  N          0.90378000       0.02453000       0.20378000
    35  N          0.90378000       0.47547000       0.70378000
    36  N          0.09622000       0.97547000       0.79622000
    37  C          0.30013000       0.12613000       0.62243000
    38  C          0.69987000       0.62613000       0.87757000
    39  C          0.69987000       0.87387000       0.37757000
    40  C          0.30013000       0.37387000       0.12243000
    41  C          0.18603000       0.06763000       0.43163000
    42  C          0.81397000       0.56763000       0.06837000
    43  C          0.81397000       0.93237000       0.56837000
    44  C          0.18603000       0.43237000       0.93163000
    45  H          0.21166300       0.12173000       0.36152700
    46  H          0.78833700       0.62173000       0.13847300
    47  H          0.78833700       0.87827000       0.63847300
    48  H          0.21166300       0.37827000       0.86152700
    49  H          0.09676000       0.02703200       0.40727600
    50  H          0.90324000       0.52703200       0.09272400
    51  H          0.90324000       0.97296800       0.59272400
    52  H          0.09676000       0.47296800       0.90727600
    53  C          0.29143000       0.96047000       0.47243000
    54  C          0.70857000       0.46047000       0.02757000
    55  C          0.70857000       0.03953000       0.52757000
    56  C          0.29143000       0.53953000       0.97243000
    57  H          0.24910100       0.87541500       0.49443400
    58  H          0.75089900       0.37541500       0.00556600
    59  H          0.75089900       0.12458500       0.50556600
    60  H          0.24910100       0.62458500      -0.00556600
    61  H          0.34947600       0.94276700       0.40657900
    62  H          0.65052400       0.44276700       0.09342100
    63  H          0.65052400       0.05723300       0.59342100
    64  H          0.34947600       0.55723300       0.90657900
    65  C          0.10093000       0.26483000       0.55193000
    66  C          0.89907000       0.76483000       0.94807000
    67  C          0.89907000       0.73517000       0.44807000
    68  C          0.10093000       0.23517000       0.05193000
    69  H          0.10330600       0.29241200       0.63990300
    70  H          0.89669400       0.79241200       0.86009700
    71  H          0.89669400       0.70758800       0.36009700
    72  H          0.10330600       0.20758800       0.13990300
    73  H          0.00765100       0.23888300       0.52154000
    74  H         -0.00765100       0.73888300       0.97846000
    75  H         -0.00765100       0.76111700       0.47846000
    76  H          0.00765100       0.26111700       0.02154000
    77  C          0.14033000       0.38293000       0.47693000
    78  C          0.85967000       0.88293000       0.02307000
    79  C          0.85967000       0.61707000       0.52307000
    80  C          0.14033000       0.11707000       0.97693000
    81  C          0.25313000       0.46003000       0.51773000
    82  C          0.74687000       0.96003000       0.98227000
    83  C          0.74687000       0.53997000       0.48227000
    84  C          0.25313000       0.03997000       0.01773000
    85  H          0.30651300       0.43869100       0.59348500
    86  H          0.69348700       0.93869100       0.90651500
    87  H          0.69348700       0.56130900       0.40651500
    88  H          0.30651300       0.06130900       0.09348500
    89  C          0.28613000       0.56703000       0.44723000
    90  C          0.71387000       0.06703000       0.05277000
    91  C          0.71387000       0.43297000       0.55277000
    92  C          0.28613000       0.93297000       0.94723000
    93  H          0.36227900       0.62114300       0.47249000
    94  H          0.63772100       0.12114300       0.02751000
    95  H          0.63772100       0.37885700       0.52751000
    96  H          0.36227900       0.87885700       0.97249000
    97  C          0.20413000       0.59233000       0.33843000
    98  C          0.79587000       0.09233000       0.16157000
    99  C          0.79587000       0.40767000       0.66157000
   100  C          0.20413000       0.90767000       0.83843000
   101  C          0.06653000       0.41923000       0.36653000
   102  C          0.93347000       0.91923000       0.13347000
   103  C          0.93347000       0.58077000       0.63347000
   104  C          0.06653000       0.08077000       0.86653000
   105  H         -0.01008500       0.36682400       0.33808300
   106  H          0.01008500       0.86682400       0.16191700
   107  H          0.01008500       0.63317600       0.66191700
   108  H         -0.01008500       0.13317600       0.83808300
