data_HANFOS01
_symmetry_space_group_name_H-M    'P1'
_symmetry_Int_Tables_number       1
loop_
_symmetry_equiv_pos_site_id
_symmetry_equiv_pos_as_xyz
1 x,y,z
_cell_length_a                   12.366914
_cell_length_b                   9.53598
_cell_length_c                   18.8423
_cell_angle_alpha                90.0
_cell_angle_beta                 102.64712
_cell_angle_gamma                90.0
loop_
_atom_site_label
_atom_site_type_symbol
_atom_site_fract_x
_atom_site_fract_y
_atom_site_fract_z
     1  Cl         0.49256500       0.38372300       0.57502600
     2  Cl         0.00743500       0.88372300       0.92497400
     3  Cl         0.50743500       0.61627700       0.42497400
     4  Cl        -0.00743500       0.11627700       0.07502600
     5  O          0.09358850       0.25686810       0.87531890
     6  O          0.40641150       0.75686810       0.62468110
     7  O          0.90641150       0.74313190       0.12468110
     8  O          0.59358850       0.24313190       0.37531890
     9  O          0.21901840       0.15358000       0.95665900
    10  O          0.28098160       0.65358000       0.54334100
    11  O          0.78098160       0.84642000       0.04334100
    12  O          0.71901840       0.34642000       0.45665900
    13  N          0.36423840       0.16788000       0.57926900
    14  N          0.13576160       0.66788000       0.92073100
    15  N          0.63576160       0.83212000       0.42073100
    16  N          0.86423840       0.33212000       0.07926900
    17  N          0.34046830       0.96028000       0.91546880
    18  N          0.15953170       0.46028000       0.58453120
    19  N          0.65953170       0.03972000       0.08453120
    20  N          0.84046830       0.53972000       0.41546880
    21  N          0.19714850       0.10165810       0.83639900
    22  N          0.30285150       0.60165810       0.66360100
    23  N          0.80285150       0.89834190       0.16360100
    24  N          0.69714850       0.39834190       0.33639900
    25  N          0.30409850       0.93522810       0.79716900
    26  N          0.19590150       0.43522810       0.70283100
    27  N          0.69590150       0.06477190       0.20283100
    28  N          0.80409850       0.56477190       0.29716900
    29  C          0.43926820       0.27438000       0.69488880
    30  C          0.06073180       0.77438000       0.80511120
    31  C          0.56073180       0.72562000       0.30511120
    32  C          0.93926820       0.22562000       0.19488880
    33  C          0.38629830       0.17518000       0.72903880
    34  C          0.11370170       0.67518000       0.77096120
    35  C          0.61370170       0.82482000       0.27096120
    36  C          0.88629830       0.32482000       0.22903880
    37  C          0.25762820       0.96338000       0.72118880
    38  C          0.24237180       0.46338000       0.77881120
    39  C          0.74237180       0.03662000       0.27881120
    40  C          0.75762820       0.53662000       0.22118880
    41  N          0.17017840       0.17118000       0.89252890
    42  N          0.32982160       0.67118000       0.60747110
    43  N          0.82982160       0.82882000       0.10747110
    44  N          0.67017840       0.32882000       0.39252890
    45  C          0.39754820       0.84128000       0.82182870
    46  C          0.10245180       0.34128000       0.67817130
    47  C          0.60245180       0.15872000       0.17817130
    48  C          0.89754820       0.65872000       0.32182870
    49  C          0.27737820       0.00458000       0.85294880
    50  C          0.22262180       0.50458000       0.64705120
    51  C          0.72262180      -0.00458000       0.14705120
    52  C          0.77737820       0.49542000       0.35294880
    53  C          0.31373810       0.07458000       0.61378880
    54  C          0.18626190       0.57458000       0.88621120
    55  C          0.68626190       0.92542000       0.38621120
    56  C          0.81373810       0.42542000       0.11378880
    57  C          0.40844810       0.84098000       0.90456870
    58  C          0.09155190       0.34098000       0.59543130
    59  C          0.59155190       0.15902000       0.09543130
    60  C          0.90844810       0.65902000       0.40456870
    61  C          0.32102830       0.07288000       0.68854890
    62  C          0.17897170       0.57288000       0.81145110
    63  C          0.67897170       0.92712000       0.31145110
    64  C          0.82102830       0.42712000       0.18854890
    65  C          0.42545820       0.26478000       0.62041870
    66  C          0.07454180       0.76478000       0.87958130
    67  C          0.57454180       0.73522000       0.37958130
    68  C          0.92545820       0.23522000       0.12041870
    69  H          0.39492900       0.17744300       0.78091500
    70  H          0.10507100       0.67744300       0.71908500
    71  H          0.60507100       0.82255700       0.21908500
    72  H          0.89492900       0.32255700       0.28091500
    73  H          0.48386000       0.34695400       0.72205800
    74  H          0.01614000       0.84695400       0.77794200
    75  H          0.51614000       0.65304600       0.27794200
    76  H          0.98386000       0.15304600       0.22205800
    77  H          0.18187600      -0.00749800       0.71535900
    78  H          0.31812400       0.49250200       0.78464100
    79  H          0.81812400       0.00749800       0.28464100
    80  H          0.68187600       0.50749800       0.21535900
    81  H          0.25429500       0.87788700       0.69391200
    82  H          0.24570500       0.37788700       0.80608800
    83  H          0.74570500       0.12211300       0.30608800
    84  H          0.75429500       0.62211300       0.19391200
    85  H          0.26924700       0.00383900       0.58503100
    86  H          0.23075300       0.50383900       0.91496900
    87  H          0.73075300      -0.00383900       0.41496900
    88  H          0.76924700       0.49616100       0.08503100
    89  H          0.37669000       0.75643700       0.91871600
    90  H          0.12331000       0.25643700       0.58128400
    91  H          0.62331000       0.24356300       0.08128400
    92  H          0.87669000       0.74356300       0.41871600
    93  H          0.48417500       0.85845800       0.92835000
    94  H          0.01582500       0.35845800       0.57165000
    95  H          0.51582500       0.14154200       0.07165000
    96  H          0.98417500       0.64154200       0.42835000
    97  H          0.46301900       0.88151500       0.81063100
    98  H          0.03698100       0.38151500       0.68936900
    99  H          0.53698100       0.11848500       0.18936900
   100  H          0.96301900       0.61848500       0.31063100
   101  H          0.37850500       0.74892200       0.80300100
   102  H          0.12149500       0.24892200       0.69699900
   103  H          0.62149500       0.25107800       0.19699900
   104  H          0.87850500       0.75107800       0.30300100
   105  H          0.32770000       0.97870000       0.95238100
   106  H          0.17230000       0.47870000       0.54761900
   107  H          0.67230000       0.02130000       0.04761900
   108  H          0.82770000       0.52130000       0.45238100
   109  Cl         0.50723500       0.40171300       0.91339700
   110  Cl        -0.00723500       0.90171300       0.58660300
   111  Cl         0.49276500       0.59828700       0.08660300
   112  Cl         0.00723500       0.09828700       0.41339700
   113  O          0.90547850       0.54676810       0.62553890
   114  O          0.59452150       0.04676810       0.87446110
   115  O          0.09452150       0.45323190       0.37446110
   116  O          0.40547850       0.95323190       0.12553890
   117  O          0.78564840       0.65458000       0.54305900
   118  O          0.71435160       0.15458000       0.95694100
   119  O          0.21435160       0.34542000       0.45694100
   120  O          0.28564840       0.84542000       0.04305900
   121  N          0.55423840       0.53558000       0.80340890
   122  N          0.94576160       0.03558000       0.69659110
   123  N          0.44576160       0.46442000       0.19659110
   124  N          0.05423840       0.96442000       0.30340890
   125  N          0.66624830       0.85018000       0.58218880
   126  N          0.83375170       0.35018000       0.91781120
   127  N          0.33375170       0.14982000       0.41781120
   128  N          0.16624830       0.64982000       0.08218880
   129  N          0.79932840       0.70026810       0.66309900
   130  N          0.70067160       0.20026810       0.83690100
   131  N          0.20067160       0.29973190       0.33690100
   132  N          0.29932840       0.79973190       0.16309900
   133  N          0.69010850       0.86581800       0.70032900
   134  N          0.80989150       0.36581800       0.79967100
   135  N          0.30989150       0.13418200       0.29967100
   136  N          0.19010850       0.63418200       0.20032900
   137  C          0.73724810       0.84198000       0.77654890
   138  C          0.76275190       0.34198000       0.72345110
   139  C          0.26275190       0.15802000       0.22345110
   140  C          0.23724810       0.65802000       0.27654890
   141  C          0.60253820       0.96778000       0.67463880
   142  C          0.89746180       0.46778000       0.82536120
   143  C          0.39746180       0.03222000       0.32536120
   144  C          0.10253820       0.53222000       0.17463880
   145  C          0.69634810       0.72577000       0.88731880
   146  C          0.80365190       0.22577000       0.61268120
   147  C          0.30365190       0.27423000       0.11268120
   148  C          0.19634810       0.77423000       0.38731880
   149  N          0.83030840       0.63338000       0.60779890
   150  N          0.66969160       0.13338000       0.89220110
   151  N          0.16969160       0.36662000       0.39220110
   152  N          0.33030840       0.86662000       0.10779890
   153  C          0.64452810       0.62447000       0.92034880
   154  C          0.85547190       0.12447000       0.57965120
   155  C          0.35547190       0.37553000       0.07965120
   156  C          0.14452810       0.87553000       0.42034880
   157  C          0.60567810       0.63548000       0.77220880
   158  C          0.89432190       0.13548000       0.72779120
   159  C          0.39432190       0.36452000       0.22779120
   160  C          0.10567810       0.86452000       0.27220880
   161  C          0.72074830       0.79968000       0.64500890
   162  C          0.77925170       0.29968000       0.85499110
   163  C          0.27925170       0.20032000       0.35499110
   164  C          0.22074830       0.70032000       0.14500890
   165  C          0.67758820       0.73268000       0.81170890
   166  C          0.82241180       0.23268000       0.68829110
   167  C          0.32241180       0.26732000       0.18829110
   168  C          0.17758820       0.76732000       0.31170890
   169  C          0.58785820       0.95908000       0.59185870
   170  C          0.91214180       0.45908000       0.90814130
   171  C          0.41214180       0.04092000       0.40814130
   172  C          0.08785820       0.54092000       0.09185870
   173  C          0.57482810       0.53308000       0.87484870
   174  C          0.92517190       0.03308000       0.62515130
   175  C          0.42517190       0.46692000       0.12515130
   176  C          0.07482810       0.96692000       0.37484870
   177  H          0.74551400       0.79170000       0.91653800
   178  H          0.75448600       0.29170000       0.58346200
   179  H          0.25448600       0.20830000       0.08346200
   180  H          0.24551400       0.70830000       0.41653800
   181  H          0.65626600       0.61784300       0.97231600
   182  H          0.84373400       0.11784300       0.52768400
   183  H          0.34373400       0.38215700       0.02768400
   184  H          0.15626600       0.88215700       0.47231600
   185  H          0.73958400       0.92880800       0.80262500
   186  H          0.76041600       0.42880800       0.69737500
   187  H          0.26041600       0.07119200       0.19737500
   188  H          0.23958400       0.57119200       0.30262500
   189  H          0.81378600       0.81619500       0.78272500
   190  H          0.68621400       0.31619500       0.71727500
   191  H          0.18621400       0.18380500       0.21727500
   192  H          0.31378600       0.68380500       0.28272500
   193  H          0.59170200       0.63925700       0.72008100
   194  H          0.90829800       0.13925700       0.77991900
   195  H          0.40829800       0.36074300       0.27991900
   196  H          0.09170200       0.86074300       0.22008100
   197  H          0.51383200       0.92896700       0.57045600
   198  H          0.98616800       0.42896700       0.92954400
   199  H          0.48616800       0.07103300       0.42954400
   200  H          0.01383200       0.57103300       0.07045600
   201  H          0.60913200       0.04665100       0.57378400
   202  H          0.89086800       0.54665100       0.92621600
   203  H          0.39086800       0.95334900       0.42621600
   204  H          0.10913200       0.45334900       0.07378400
   205  H          0.62821200       0.05974000       0.69099400
   206  H          0.87178800       0.55974000       0.80900600
   207  H          0.37178800       0.94026000       0.30900600
   208  H          0.12821200       0.44026000       0.19099400
   209  H          0.53564000       0.93760900       0.68797700
   210  H          0.96436000       0.43760900       0.81202300
   211  H          0.46436000       0.06239100       0.31202300
   212  H          0.03564000       0.56239100       0.18797700
   213  H          0.67080000       0.81370000       0.54448200
   214  H          0.82920000       0.31370000       0.95551800
   215  H          0.32920000       0.18630000       0.45551800
   216  H          0.17080000       0.68630000       0.04448200
