data_HANFOS11
_symmetry_space_group_name_H-M    'P1'
_symmetry_Int_Tables_number       1
loop_
_symmetry_equiv_pos_site_id
_symmetry_equiv_pos_as_xyz
1 x,y,z
_cell_length_a                   6.46924
_cell_length_b                   17.20491
_cell_length_c                   21.325512
_cell_angle_alpha                66.567019
_cell_angle_beta                 83.8492
_cell_angle_gamma                82.9092
loop_
_atom_site_label
_atom_site_type_symbol
_atom_site_fract_x
_atom_site_fract_y
_atom_site_fract_z
     1  Cl         0.66642140       0.29801600       0.90099400
     2  Cl         0.33357860       0.70198400       0.09900600
     3  O          0.44694000       0.17106150       0.52088120
     4  O          0.55306000       0.82893850       0.47911880
     5  O          0.35944000       0.06586140       0.61435120
     6  O          0.64056000       0.93413860       0.38564880
     7  N          0.37484000       0.14379170       0.58112140
     8  N          0.62516000       0.85620830       0.41887860
     9  N          0.30944000       0.19287170       0.61634140
    10  N          0.69056000       0.80712830       0.38365860
    11  N          0.24644000       0.32755170       0.61615140
    12  N          0.75356000       0.67244830       0.38384860
    13  N          0.38394000       0.32416170       0.51864140
    14  N          0.61606000       0.67583830       0.48135860
    15  H          0.41660000       0.30220000       0.48911500
    16  H          0.58340000       0.69780000       0.51088500
    17  N          0.60714000       0.31450180       0.77663140
    18  N          0.39286000       0.68549820       0.22336860
    19  C          0.31665000       0.27752000       0.58190160
    20  C          0.68335000       0.72248000       0.41809840
    21  C          0.26095000       0.41742000       0.57199170
    22  C          0.73905000       0.58258000       0.42800830
    23  H          0.35939100       0.44296000       0.58914300
    24  H          0.64060900       0.55704000       0.41085700
    25  H          0.12258200       0.45009100       0.56897800
    26  H          0.87741800       0.54990900       0.43102200
    27  C          0.34166000       0.41522000       0.50258170
    28  C          0.65834000       0.58478000       0.49741830
    29  H          0.23492100       0.44134800       0.46840400
    30  H          0.76507900       0.55865200       0.53159600
    31  H          0.47018300       0.44501300       0.48505500
    32  H          0.52981700       0.55498700       0.51494500
    33  C          0.15015000       0.29872000       0.68510160
    34  C          0.84985000       0.70128000       0.31489840
    35  H          0.11668700       0.23934200       0.69876000
    36  H          0.88331300       0.76065800       0.30124000
    37  H          0.01663700       0.33387800       0.68475000
    38  H         -0.01663700       0.66612200       0.31525000
    39  C          0.48955000       0.31482000       0.72821170
    40  C          0.51045000       0.68518000       0.27178830
    41  H          0.55470200       0.32431200       0.68400600
    42  H          0.44529800       0.67568800       0.31599400
    43  C          0.27995000       0.30210190       0.73879170
    44  C          0.72005000       0.69789810       0.26120830
    45  C          0.18555000       0.28852000       0.80363170
    46  C          0.81445000       0.71148000       0.19636830
    47  H          0.04148700       0.27955100       0.81286500
    48  H          0.95851300       0.72044900       0.18713500
    49  C          0.30145000       0.28792000       0.85442180
    50  C          0.69855000       0.71208000       0.14557820
    51  H          0.24035400       0.27917600       0.89899500
    52  H          0.75964600       0.72082400       0.10100500
    53  C          0.51045000       0.30072000       0.83762180
    54  C          0.48955000       0.69928000       0.16237820
    55  Cl         0.22139140       0.06665600       0.94113400
    56  Cl         0.77860860       0.93334400       0.05886600
    57  O          0.91294000       0.32221150       0.50344120
    58  O          0.08706000       0.67778850       0.49655880
    59  O          0.77544000       0.38602140       0.56958130
    60  O          0.22456000       0.61397860       0.43041870
    61  N          0.82874000       0.31989170       0.55930140
    62  N          0.17126000       0.68010830       0.44069860
    63  N          0.79064000       0.24704170       0.61312130
    64  N          0.20936000       0.75295830       0.38687870
    65  N          0.79214000       0.10146170       0.65636140
    66  N          0.20786000       0.89853830       0.34363860
    67  N          0.91835000       0.15712180       0.54996140
    68  N          0.08165000       0.84287820       0.45003860
    69  H          0.95660000       0.19451800       0.51091000
    70  H          0.04340000       0.80548200       0.48909000
    71  N          0.16084000       0.06962180       0.82075140
    72  N          0.83916000       0.93037820       0.17924860
    73  C          0.83715000       0.17402000       0.60351160
    74  C          0.16285000       0.82598000       0.39648840
    75  C          0.85436000       0.02752000       0.63878180
    76  C          0.14564000       0.97248000       0.36121820
    77  H          0.73723800       0.99157000       0.64823400
    78  H          0.26276200       0.00843000       0.35176600
    79  H          0.97445200       0.99256600       0.66453800
    80  H          0.02554800       0.00743400       0.33546200
    81  C          0.91466000       0.06782000       0.56175180
    82  C          0.08534000       0.93218000       0.43824820
    83  H          0.05316900       0.04338500       0.55039200
    84  H          0.94683100       0.95661500       0.44960800
    85  H          0.80953400       0.06020700       0.53460600
    86  H          0.19046600       0.93979300       0.46539400
    87  C          0.68315000       0.09632000       0.72066170
    88  C          0.31685000       0.90368000       0.27933830
    89  H          0.60239300       0.04578000       0.73854200
    90  H          0.39760700       0.95422000       0.26145800
    91  H          0.58215700       0.14711900       0.71177500
    92  H          0.41784300       0.85288100       0.28822500
    93  C          0.03825000       0.07612000       0.77113170
    94  C          0.96175000       0.92388000       0.22886830
    95  H          0.10340500       0.07027500       0.73092900
    96  H          0.89659500       0.92972500       0.26907100
    97  C          0.82315000       0.09062000       0.77565160
    98  C          0.17685000       0.90938000       0.22434840
    99  C          0.72896000       0.09922000       0.83435170
   100  C          0.27104000       0.90078000       0.16564830
   101  H          0.58160600       0.10991700       0.83884400
   102  H          0.41839400       0.89008300       0.16115600
   103  C          0.84925000       0.09232000       0.88606170
   104  C          0.15075000       0.90768000       0.11393830
   105  H          0.78874100       0.09777600       0.92688100
   106  H          0.21125900       0.90222400       0.07311900
   107  C          0.06256000       0.07702000       0.87564170
   108  C          0.93744000       0.92298000       0.12435830
   109  Cl         0.41527140       0.09809600       0.07698500
   110  Cl         0.58472860       0.90190400       0.92301500
   111  O          0.59424000       0.34475170       0.38597130
   112  O          0.40576000       0.65524830       0.61402870
   113  O          0.61824000       0.45988150       0.29393130
   114  O          0.38176000       0.54011850       0.70606870
   115  N          0.61254000       0.38161180       0.32255150
   116  N          0.38746000       0.61838820       0.67744850
   117  N          0.63124000       0.34053170       0.27939140
   118  N          0.36876000       0.65946830       0.72060860
   119  N          0.65894000       0.21121170       0.26773140
   120  N          0.34106000       0.78878830       0.73226860
   121  N          0.57925000       0.20204180       0.37288140
   122  N          0.42075000       0.79795820       0.62711860
   123  H          0.58060000       0.21820000       0.40591300
   124  H          0.41940000       0.78180000       0.59408700
   125  N          0.21555000       0.15312000       0.16637150
   126  N          0.78445000       0.84688000       0.83362850
   127  C          0.62225000       0.25512000       0.30834170
   128  C          0.37775000       0.74488000       0.69165830
   129  C          0.60106000       0.12392000       0.30501170
   130  C          0.39894000       0.87608000       0.69498830
   131  H          0.70468300       0.08231200       0.29498000
   132  H          0.29531700       0.91768800       0.70502000
   133  H          0.46127700       0.11738600       0.29374800
   134  H          0.53872300       0.88261400       0.70625200
   135  C          0.60116000       0.11372000       0.37947170
   136  C          0.39884000       0.88628000       0.62052830
   137  H          0.48261300       0.08262700       0.40755400
   138  H          0.51738700       0.91737300       0.59244600
   139  H          0.73339400       0.08359900       0.39983700
   140  H          0.26660600       0.91640100       0.60016300
   141  C          0.66836000       0.24792000       0.19336170
   142  C          0.33164000       0.75208000       0.80663830
   143  H          0.68016600       0.30985300       0.17675000
   144  H          0.31983400       0.69014700       0.82325000
   145  H          0.53761300       0.23970600       0.17739100
   146  H          0.46238700       0.76029400       0.82260900
   147  C          0.04546000       0.18752000       0.19159180
   148  C          0.95454000       0.81248000       0.80840820
   149  H          0.05851200       0.19882600       0.23102300
   150  H          0.94148800       0.80117400       0.76897700
   151  C          0.85295000       0.20732000       0.16366170
   152  C          0.14705000       0.79268000       0.83633830
   153  C          0.83576000       0.18992000       0.10624180
   154  C          0.16424000       0.81008000       0.89375820
   155  H          0.70564100       0.20143200       0.08598700
   156  H          0.29435900       0.79856800       0.91401300
   157  C          0.00966000       0.15572000       0.07855180
   158  C         -0.00966000       0.84428000       0.92144820
   159  H          0.00260200       0.14381600       0.03900100
   160  H         -0.00260200       0.85618400       0.96099900
   161  C          0.19286000       0.13972000       0.11106180
   162  C          0.80714000       0.86028000       0.88893820
   163  C          0.12335000       0.36772000       0.29762160
   164  C          0.87665000       0.63228000       0.70237840
   165  Cl         0.62956850       0.65074600       0.95862600
   166  Cl         0.37043150       0.34925400       0.04137400
   167  O          0.07075000       0.23567170       0.41328130
   168  O          0.92925000       0.76432830       0.58671870
   169  O          0.10474000       0.15266150       0.35844120
   170  O          0.89526000       0.84733850       0.64155880
   171  N          0.10074000       0.22475180       0.35892140
   172  N          0.89926000       0.77524820       0.64107860
   173  N          0.13434000       0.28851170       0.29815130
   174  N          0.86566000       0.71148830       0.70184870
   175  N          0.14114000       0.43287170       0.23760140
   176  N          0.85886000       0.56712830       0.76239860
   177  N          0.10075000       0.39555190       0.34849150
   178  N          0.89925000       0.60444810       0.65150850
   179  H          0.05660000       0.36520000       0.38949000
   180  H          0.94340000       0.63480000       0.61051000
   181  N          0.71485000       0.53417190       0.07889140
   182  N          0.28515000       0.46582810       0.92110860
   183  C          0.15026000       0.51272000       0.24586180
   184  C          0.84974000       0.48728000       0.75413820
   185  H          0.05401200       0.55855700       0.21597800
   186  H          0.94598800       0.44144300       0.78402200
   187  H          0.29360700       0.53085200       0.23578300
   188  H          0.70639300       0.46914800       0.76421700
   189  C          0.08056000       0.48872000       0.32162180
   190  C          0.91944000       0.51128000       0.67837820
   191  H          0.17224500       0.51006200       0.34438400
   192  H          0.82775500       0.48993800       0.65561600
   193  H          0.93446700       0.51122000       0.32737400
   194  H          0.06553300       0.48878000       0.67262600
   195  C          0.20346000       0.42682000       0.17184160
   196  C          0.79654000       0.57318000       0.82815840
   197  H          0.19580700       0.36771000       0.17621600
   198  H          0.80419300       0.63229000       0.82378400
   199  H          0.34971800       0.44083900       0.15841500
   200  H          0.65028200       0.55916100       0.84158500
   201  C          0.84785000       0.48562000       0.12610170
   202  C          0.15215000       0.51438000       0.87389830
   203  H          0.79085400       0.44782700       0.16872900
   204  H          0.20914600       0.55217300       0.83127100
   205  C          0.06425000       0.48662000       0.11710160
   206  C          0.93575000       0.51338000       0.88289840
   207  C          0.14546000       0.54562000       0.05630170
   208  C          0.85454000       0.45438000       0.94369830
   209  H          0.29166500       0.55005600       0.04877200
   210  H          0.70833500       0.44994400       0.95122800
   211  C          0.01296000       0.59792000       0.00684170
   212  C         -0.01296000       0.40208000      -0.00684170
   213  H          0.06413200       0.63867000       0.96468500
   214  H          0.93586800       0.36133000       0.03531500
   215  C          0.80185000       0.58802000       0.02158160
   216  C          0.19815000       0.41198000       0.97841840
