data_HANFOS
_symmetry_space_group_name_H-M    'P1'
_symmetry_Int_Tables_number       1
loop_
_symmetry_equiv_pos_site_id
_symmetry_equiv_pos_as_xyz
1 x,y,z
_cell_length_a                   19.2908
_cell_length_b                   4.8392
_cell_length_c                   11.7845
_cell_angle_alpha                90.0
_cell_angle_beta                 99.2206
_cell_angle_gamma                90.0
loop_
_atom_site_label
_atom_site_type_symbol
_atom_site_fract_x
_atom_site_fract_y
_atom_site_fract_z
     1  Cl         0.54482400       0.61741840       0.67771700
     2  Cl         0.45517600       0.11741840       0.82228300
     3  Cl         0.45517600       0.38258160       0.32228300
     4  Cl         0.54482400       0.88258160       0.17771700
     5  N          0.64941130       0.95594000       0.69919190
     6  N          0.35058870       0.45594000       0.80080810
     7  N          0.35058870       0.04406000       0.30080810
     8  N          0.64941130       0.54406000       0.19919190
     9  N          0.80624100       0.33744000       0.52725170
    10  N          0.19375900       0.83744000       0.97274830
    11  N          0.19375900       0.66256000       0.47274830
    12  N          0.80624100       0.16256000       0.02725170
    13  N          0.91593120       0.31255000       0.59913190
    14  N          0.08406880       0.81255000       0.90086810
    15  N          0.08406880       0.68745000       0.40086810
    16  N          0.91593120       0.18745000       0.09913190
    17  N          0.83835110       0.62604000       0.67863170
    18  N          0.16164890       0.12604000       0.82136830
    19  N          0.16164890       0.37396000       0.32136830
    20  N          0.83835110       0.87396000       0.17863170
    21  N          0.88983130       0.73275000       0.75567170
    22  N          0.11016870       0.23275000       0.74432830
    23  N          0.11016870       0.26725000       0.24432830
    24  N          0.88983130       0.76725000       0.25567170
    25  O          0.87200130       0.90655000       0.82000190
    26  O          0.12799870       0.40655000       0.67999810
    27  O          0.12799870       0.09345000       0.17999810
    28  O          0.87200130       0.59345000       0.32000190
    29  O          0.95102120       0.66115000       0.76302000
    30  O          0.04897880       0.16115000       0.73698000
    31  O          0.04897880       0.33885000       0.23698000
    32  O          0.95102120       0.83885000       0.26302000
    33  C          0.60029130       0.84825000       0.62432000
    34  C          0.39970870       0.34825000       0.87568000
    35  C          0.39970870       0.15175000       0.37568000
    36  C          0.60029130       0.65175000       0.12432000
    37  C          0.58924140       0.90604000       0.50922000
    38  C          0.41075860       0.40604000      -0.00922000
    39  C          0.41075860       0.09396000       0.49078000
    40  C          0.58924140       0.59396000       0.00922000
    41  C          0.63288140       0.09416000       0.47062000
    42  C          0.36711860       0.59416000       0.02938000
    43  C          0.36711860       0.90584000       0.52938000
    44  C          0.63288140       0.40584000       0.97062000
    45  C          0.68547120       0.21455000       0.54596190
    46  C          0.31452880       0.71455000       0.95403810
    47  C          0.31452880       0.78545000       0.45403810
    48  C          0.68547120       0.28545000       0.04596190
    49  C          0.69141150       0.13587000       0.65842000
    50  C          0.30858850       0.63587000       0.84158000
    51  C          0.30858850       0.86413000       0.34158000
    52  C          0.69141150       0.36413000       0.15842000
    53  C          0.73371130       0.42526000       0.50862000
    54  C          0.26628870       0.92526000      -0.00862000
    55  C          0.26628870       0.57474000       0.49138000
    56  C          0.73371130       0.07474000       0.00862000
    57  C          0.83139140       0.11856000       0.46132000
    58  C          0.16860860       0.61856000       0.03868000
    59  C          0.16860860       0.88144000       0.53868000
    60  C          0.83139140       0.38144000       0.96132000
    61  C          0.90970140       0.11746000       0.50522000
    62  C          0.09029860       0.61746000      -0.00522000
    63  C          0.09029860       0.88254000       0.49478000
    64  C          0.90970140       0.38254000       0.00522000
    65  C          0.85659110       0.43315000       0.60789180
    66  C          0.14340890       0.93315000       0.89210820
    67  C          0.14340890       0.56685000       0.39210820
    68  C          0.85659110       0.06685000       0.10789180
    69  H          0.95121500       0.34850000       0.63730000
    70  H          0.04878500       0.84850000       0.86270000
    71  H          0.04878500       0.65150000       0.36270000
    72  H          0.95121500       0.15150000       0.13730000
    73  H          0.55201600       0.81940000       0.45930000
    74  H          0.44798400       0.31940000       0.04070000
    75  H          0.44798400       0.18060000       0.54070000
    76  H          0.55201600       0.68060000       0.95930000
    77  H          0.62571500       0.15160000       0.38830000
    78  H          0.37428500       0.65160000       0.11170000
    79  H          0.37428500       0.84840000       0.61170000
    80  H          0.62571500       0.34840000       0.88830000
    81  H          0.72720000       0.21180000       0.71130000
    82  H          0.27280000       0.71180000       0.78870000
    83  H          0.27280000       0.78820000       0.28870000
    84  H          0.72720000       0.28820000       0.21130000
    85  H          0.73091200       0.59050000       0.55320000
    86  H          0.26908800       0.09050000       0.94680000
    87  H          0.26908800       0.40950000       0.44680000
    88  H          0.73091200       0.90950000       0.05320000
    89  H          0.71621400       0.46860000       0.42630000
    90  H          0.28378600       0.96860000       0.07370000
    91  H          0.28378600       0.53140000       0.57370000
    92  H          0.71621400       0.03140000       0.92630000
    93  H          0.81001400       0.95040000       0.47420000
    94  H          0.18998600       0.45040000       0.02580000
    95  H          0.18998600       0.04960000       0.52580000
    96  H          0.81001400       0.54960000       0.97420000
    97  H          0.82451300       0.17150000       0.38730000
    98  H          0.17548700       0.67150000       0.11270000
    99  H          0.17548700       0.82850000       0.61270000
   100  H          0.82451300       0.32850000       0.88730000
   101  H          0.92861500       0.93940000       0.53230000
   102  H          0.07138500       0.43940000       0.96770000
   103  H          0.07138500       0.06060000       0.46770000
   104  H          0.92861500       0.56060000       0.03230000
   105  H          0.93641400       0.18760000       0.45020000
   106  H          0.06358600       0.68760000       0.04980000
   107  H          0.06358600       0.81240000       0.54980000
   108  H          0.93641400       0.31240000       0.95020000
