data_HAVBIQ
_symmetry_space_group_name_H-M    'P1'
_symmetry_Int_Tables_number       1
loop_
_symmetry_equiv_pos_site_id
_symmetry_equiv_pos_as_xyz
1 x,y,z
_cell_length_a                   18.23616
_cell_length_b                   4.806117
_cell_length_c                   11.99011
_cell_angle_alpha                90.0
_cell_angle_beta                 90.0
_cell_angle_gamma                90.0
loop_
_atom_site_label
_atom_site_type_symbol
_atom_site_fract_x
_atom_site_fract_y
_atom_site_fract_z
     1  N          0.67940800       0.05983000       0.79808130
     2  N          0.32059200       0.94017000       0.29808130
     3  N          0.17940800       0.44017000       0.79808130
     4  N          0.82059200       0.55983000       0.29808130
     5  N          0.68426900       0.13003000       0.98081140
     6  N          0.31573100       0.86997000       0.48081140
     7  N          0.18426900       0.36997000       0.98081140
     8  N          0.81573100       0.63003000       0.48081140
     9  H          0.69790000       0.11370000       0.04920000
    10  H          0.30210000       0.88630000       0.54920000
    11  H          0.19790000       0.38630000       0.04920000
    12  H          0.80210000       0.61370000       0.54920000
    13  O          0.76576900       0.71956000       0.70053130
    14  O          0.23423100       0.28044000       0.20053130
    15  O          0.26576900       0.78044000       0.70053130
    16  O          0.73423100       0.21956000       0.20053130
    17  H          0.73360000       0.83700000       0.70860000
    18  H          0.26640000       0.16300000       0.20860000
    19  H          0.23360000       0.66300000       0.70860000
    20  H          0.76640000       0.33700000       0.20860000
    21  C          0.79452100       0.65316000       0.80126170
    22  C          0.20547900       0.34684000       0.30126170
    23  C          0.29452100       0.84684000       0.80126170
    24  C          0.70547900       0.15316000       0.30126170
    25  C          0.84960120       0.45445000       0.80582000
    26  C          0.15039880       0.54555000       0.30582000
    27  C          0.34960120       0.04555000       0.80582000
    28  C          0.65039880       0.95445000       0.30582000
    29  H          0.86650000       0.37290000       0.74040000
    30  H          0.13350000       0.62710000       0.24040000
    31  H          0.36650000       0.12710000       0.74040000
    32  H          0.63350000       0.87290000       0.24040000
    33  C          0.87944110       0.37716000       0.90662000
    34  C          0.12055890       0.62284000       0.40662000
    35  C          0.37944110       0.12284000       0.90662000
    36  C          0.62055890       0.87716000       0.40662000
    37  H          0.91590000       0.24220000       0.90920000
    38  H          0.08410000       0.75780000       0.40920000
    39  H          0.41590000       0.25780000       0.90920000
    40  H          0.58410000       0.74220000       0.40920000
    41  C          0.85533120       0.49956000       0.00342000
    42  C          0.14466880       0.50044000       0.50342000
    43  C          0.35533120       0.00044000       0.00342000
    44  C          0.64466880      -0.00044000       0.50342000
    45  H          0.87560000       0.44750000       0.07150000
    46  H          0.12440000       0.55250000       0.57150000
    47  H          0.37560000       0.05250000       0.07150000
    48  H          0.62440000       0.94750000       0.57150000
    49  C          0.80149110       0.69836000      -0.00005820
    50  C          0.19850890       0.30164000       0.49994180
    51  C          0.30149110       0.80164000      -0.00005820
    52  C          0.69850890       0.19836000       0.49994180
    53  H          0.78580000       0.78050000       0.06600000
    54  H          0.21420000       0.21950000       0.56600000
    55  H          0.28580000       0.71950000       0.06600000
    56  H          0.71420000       0.28050000       0.56600000
    57  C          0.76982900       0.77977000       0.89895160
    58  C          0.23017100       0.22023000       0.39895160
    59  C          0.26982900       0.72023000       0.89895160
    60  C          0.73017100       0.27977000       0.39895160
    61  C          0.71186800      -0.01223000       0.89233170
    62  C          0.28813200       0.01223000       0.39233170
    63  C          0.21186800       0.51223000       0.89233170
    64  C          0.78813200       0.48777000       0.39233170
    65  C          0.63069100       0.30454000       0.94122190
    66  C          0.36930900       0.69546000       0.44122190
    67  C          0.13069100       0.19546000       0.94122190
    68  C          0.86930900       0.80454000       0.44122190
    69  C          0.58531110       0.49595000      -0.00578000
    70  C          0.41468890       0.50405000       0.49422000
    71  C          0.08531110       0.00405000      -0.00578000
    72  C          0.91468890      -0.00405000       0.49422000
    73  H          0.58730000       0.52400000       0.07090000
    74  H          0.41270000       0.47600000       0.57090000
    75  H          0.08730000      -0.02400000       0.07090000
    76  H          0.91270000       0.02400000       0.57090000
    77  C          0.53733130       0.64185000       0.92753000
    78  C          0.46266870       0.35815000       0.42753000
    79  C          0.03733130       0.85815000       0.92753000
    80  C          0.96266870       0.14185000       0.42753000
    81  H          0.50650000       0.77290000       0.96000000
    82  H          0.49350000       0.22710000       0.46000000
    83  H          0.00650000       0.72710000       0.96000000
    84  H         -0.00650000       0.27290000       0.46000000
    85  C          0.53379120       0.59855000       0.81333000
    86  C          0.46620880       0.40145000       0.31333000
    87  C          0.03379120       0.90145000       0.81333000
    88  C          0.96620880       0.09855000       0.31333000
    89  H          0.50040000       0.70040000       0.77120000
    90  H          0.49960000       0.29960000       0.27120000
    91  H          0.00040000       0.79960000       0.77120000
    92  H         -0.00040000       0.20040000       0.27120000
    93  C          0.57825120       0.40915000       0.76102000
    94  C          0.42174880       0.59085000       0.26102000
    95  C          0.07825120       0.09085000       0.76102000
    96  C          0.92174880       0.90915000       0.26102000
    97  H          0.57560000       0.38130000       0.68440000
    98  H          0.42440000       0.61870000       0.18440000
    99  H          0.07560000       0.11870000       0.68440000
   100  H          0.92440000       0.88130000       0.18440000
   101  C          0.62764100       0.25944000       0.82662180
   102  C          0.37235900       0.74056000       0.32662180
   103  C          0.12764100       0.24056000       0.82662180
   104  C          0.87235900       0.75944000       0.32662180
