data_HAVBIQ01
_symmetry_space_group_name_H-M    'P1'
_symmetry_Int_Tables_number       1
loop_
_symmetry_equiv_pos_site_id
_symmetry_equiv_pos_as_xyz
1 x,y,z
_cell_length_a                   3.84322
_cell_length_b                   22.149812
_cell_length_c                   5.85774
_cell_angle_alpha                90.0
_cell_angle_beta                 95.4222
_cell_angle_gamma                90.0
loop_
_atom_site_label
_atom_site_type_symbol
_atom_site_fract_x
_atom_site_fract_y
_atom_site_fract_z
     1  H          0.10270000       0.10151300       0.37950000
     2  H          0.89730000       0.60151300       0.62050000
     3  H          0.34370000       0.92828700       0.97050000
     4  H          0.65630000       0.42828700       0.02950000
     5  H          0.03680000       0.85578600       0.71450000
     6  H         -0.03680000       0.35578600       0.28550000
     7  H          0.80320000       0.88558500       0.33050000
     8  H          0.19680000       0.38558500       0.66950000
     9  H          0.82820000       0.99128700       0.21150000
    10  H          0.17180000       0.49128700       0.78850000
    11  H          0.88480000       0.24141500       0.15250000
    12  H          0.11520000       0.74141500       0.84750000
    13  H          0.77780000       0.31581400       0.87750000
    14  H          0.22220000       0.81581400       0.12250000
    15  H          0.47280000       0.28921600       0.52560000
    16  H          0.52720000       0.78921600       0.47440000
    17  H          0.30070000       0.19251300       0.42350000
    18  H          0.69930000       0.69251300       0.57650000
    19  H          0.62090000       0.08761800       0.05060000
    20  H          0.37910000       0.58761800       0.94940000
    21  N          0.17315000       0.07666130       0.49404000
    22  N          0.82685000       0.57666130       0.50596000
    23  C          0.35236000       0.09496150       0.69554000
    24  C          0.64764000       0.59496150       0.30446000
    25  N          0.40635000       0.04976130       0.84343000
    26  N          0.59365000       0.54976130       0.15657000
    27  C          0.23077000       0.93983850       0.80675000
    28  C          0.76923000       0.43983850       0.19325000
    29  C          0.06238000       0.89895840       0.65505000
    30  C          0.93762000       0.39895840       0.34495000
    31  C          0.91743000       0.91637840       0.43785000
    32  C          0.08257000       0.41637840       0.56215000
    33  C          0.93553000       0.97497850       0.36195000
    34  C          0.06447000       0.47497850       0.63805000
    35  C          0.10556000       0.01581150       0.51424000
    36  C          0.89444000       0.51581150       0.48576000
    37  C          0.25156000      -0.00075140       0.73254000
    38  C          0.74844000       0.49924860       0.26746000
    39  C          0.47156000       0.15640150       0.74214000
    40  C          0.52844000       0.65640150       0.25786000
    41  C          0.64426000       0.17059140       0.95644000
    42  C          0.35574000       0.67059140       0.04356000
    43  C          0.75147000       0.22926150       0.00625000
    44  C          0.24853000       0.72926150      -0.00625000
    45  C          0.69387000       0.27399160       0.84265000
    46  C          0.30613000       0.77399160       0.15735000
    47  C          0.52988000       0.26054150       0.62965000
    48  C          0.47012000       0.76054150       0.37035000
    49  C          0.41927000       0.20217150       0.58014000
    50  C          0.58073000       0.70217150       0.41986000
    51  O          0.71115000       0.12745130       0.12073000
    52  O          0.28885000       0.62745130       0.87927000
