data_HAVBIQ05
_symmetry_space_group_name_H-M    'P1'
_symmetry_Int_Tables_number       1
loop_
_symmetry_equiv_pos_site_id
_symmetry_equiv_pos_as_xyz
1 x,y,z
_cell_length_a                   16.81364
_cell_length_b                   4.71901
_cell_length_c                   12.92223
_cell_angle_alpha                90.0
_cell_angle_beta                 102.4501
_cell_angle_gamma                90.0
loop_
_atom_site_label
_atom_site_type_symbol
_atom_site_fract_x
_atom_site_fract_y
_atom_site_fract_z
     1  H          0.25921100       0.86960000       0.81281500
     2  H          0.74078900       0.36960000       0.68718500
     3  H          0.74078900       0.13040000       0.18718500
     4  H          0.25921100       0.63040000       0.31281500
     5  H          0.25581300       0.93250000       0.47841700
     6  H          0.74418700       0.43250000       0.02158300
     7  H          0.74418700       0.06750000       0.52158300
     8  H          0.25581300       0.56750000       0.97841700
     9  N          0.21785600       0.07002000       0.57651800
    10  N          0.78214400       0.57002000       0.92348200
    11  N          0.78214400       0.92998000       0.42348200
    12  N          0.21785600       0.42998000       0.07651800
    13  O          0.29172600       0.80668000       0.45113700
    14  O          0.70827400       0.30668000       0.04886300
    15  O          0.70827400       0.19332000       0.54886300
    16  O          0.29172600       0.69332000       0.95113700
    17  C          0.31956700       0.70128000       0.63853900
    18  C          0.68043300       0.20128000       0.86146100
    19  C          0.68043300       0.29872000       0.36146100
    20  C          0.31956700       0.79872000       0.13853900
    21  N          0.23979600       0.96548000       0.74921800
    22  N          0.76020400       0.46548000       0.75078200
    23  N          0.76020400       0.03452000       0.25078200
    24  N          0.23979600       0.53452000       0.24921800
    25  C          0.13965700       0.31083000       0.80004100
    26  C          0.86034300       0.81083000       0.69995900
    27  C          0.86034300       0.68917000       0.19995900
    28  C          0.13965700       0.18917000       0.30004100
    29  H          0.14910000       0.26640000       0.87180000
    30  H          0.85090000       0.76640000       0.62820000
    31  H          0.85090000       0.73360000       0.12820000
    32  H          0.14910000       0.23360000       0.37180000
    33  C          0.36379700       0.53927000       0.72215100
    34  C          0.63620300       0.03927000       0.77784900
    35  C          0.63620300       0.46073000       0.27784900
    36  C          0.36379700       0.96073000       0.22215100
    37  H          0.35490000       0.56470000       0.79010000
    38  H          0.64510000       0.06470000       0.70990000
    39  H          0.64510000       0.43530000       0.20990000
    40  H          0.35490000       0.93530000       0.29010000
    41  C          0.16750700       0.23843000       0.62330900
    42  C          0.83249300       0.73843000       0.87669100
    43  C          0.83249300       0.76157000       0.37669100
    44  C          0.16750700       0.26157000       0.12330900
    45  C          0.08368700       0.51633000       0.75587100
    46  C          0.91631300       0.01633000       0.74412900
    47  C          0.91631300       0.48367000       0.24412900
    48  C          0.08368700      -0.01633000       0.25587100
    49  H          0.05490000       0.61230000       0.79890000
    50  H          0.94510000       0.11230000       0.70110000
    51  H          0.94510000       0.38770000       0.20110000
    52  H          0.05490000       0.88770000       0.29890000
    53  C          0.25948700       0.91018000       0.65425900
    54  C          0.74051300       0.41018000       0.84574100
    55  C          0.74051300       0.08982000       0.34574100
    56  C          0.25948700       0.58982000       0.15425900
    57  C          0.43420700       0.30387000       0.60348110
    58  C          0.56579300       0.80387000       0.89651890
    59  C          0.56579300       0.69613000       0.39651890
    60  C          0.43420700       0.19613000       0.10348110
    61  H          0.47250000       0.17230000       0.59200000
    62  H          0.52750000       0.67230000       0.90800000
    63  H          0.52750000       0.82770000       0.40800000
    64  H          0.47250000       0.32770000       0.09200000
    65  C          0.18109700       0.17402000       0.73186900
    66  C          0.81890300       0.67402000       0.76813100
    67  C          0.81890300       0.82598000       0.26813100
    68  C          0.18109700       0.32598000       0.23186900
    69  C          0.33359700       0.65877000       0.53592900
    70  C          0.66640300       0.15877000       0.96407100
    71  C          0.66640300       0.34123000       0.46407100
    72  C          0.33359700       0.84123000       0.03592900
    73  C          0.39102700       0.46117000       0.51941100
    74  C          0.60897300       0.96117000       0.98058900
    75  C          0.60897300       0.53883000       0.48058900
    76  C          0.39102700       0.03883000       0.01941100
    77  H          0.40040000       0.43470000       0.45170000
    78  H          0.59960000       0.93470000       0.04830000
    79  H          0.59960000       0.56530000       0.54830000
    80  H          0.40040000       0.06530000       0.95170000
    81  C          0.42053700       0.34187000       0.70519100
    82  C          0.57946300       0.84187000       0.79480900
    83  C          0.57946300       0.65813000       0.29480900
    84  C          0.42053700       0.15813000       0.20519100
    85  H          0.44940000       0.23510000       0.76140000
    86  H          0.55060000       0.73510000       0.73860000
    87  H          0.55060000       0.76490000       0.23860000
    88  H          0.44940000       0.26490000       0.26140000
    89  C          0.11105700       0.44673000       0.58023900
    90  C          0.88894300       0.94673000       0.91976100
    91  C          0.88894300       0.55327000       0.41976100
    92  C          0.11105700       0.05327000       0.08023900
    93  H          0.10170000       0.49280000       0.50860000
    94  H          0.89830000      -0.00720000      -0.00860000
    95  H          0.89830000       0.50720000       0.49140000
    96  H          0.10170000       0.00720000       0.00860000
    97  C          0.06947700       0.58253000       0.64755100
    98  C          0.93052300       0.08253000       0.85244900
    99  C          0.93052300       0.41747000       0.35244900
   100  C          0.06947700       0.91747000       0.14755100
   101  H          0.03120000       0.72070000       0.62030000
   102  H          0.96880000       0.22070000       0.87970000
   103  H          0.96880000       0.27930000       0.37970000
   104  H          0.03120000       0.77930000       0.12030000
