data_HCCYHG05
_symmetry_space_group_name_H-M    'P1'
_symmetry_Int_Tables_number       1
loop_
_symmetry_equiv_pos_site_id
_symmetry_equiv_pos_as_xyz
1 x,y,z
_cell_length_a                   11.65351
_cell_length_b                   11.66571
_cell_length_c                   7.35796
_cell_angle_alpha                90.0
_cell_angle_beta                 90.0
_cell_angle_gamma                90.0
loop_
_atom_site_label
_atom_site_type_symbol
_atom_site_fract_x
_atom_site_fract_y
_atom_site_fract_z
     1  Cl         0.61174600       0.89238600       0.23352110
     2  Cl         0.38825400       0.10761400       0.73352110
     3  Cl         0.11174600       0.10761400       0.23352110
     4  Cl         0.88825400       0.89238600       0.73352110
     5  Cl         0.67685600       0.62859600       0.20898110
     6  Cl         0.32314400       0.37140400       0.70898110
     7  Cl         0.17685600       0.37140400       0.20898110
     8  Cl         0.82314400       0.62859600       0.70898110
     9  Cl         0.43916600       0.50655600       0.29878110
    10  Cl         0.56083400       0.49344400       0.79878110
    11  Cl         0.93916600       0.49344400       0.29878110
    12  Cl         0.06083400       0.50655600       0.79878110
    13  Cl         0.23369600       0.66651600       0.44085100
    14  Cl         0.76630400       0.33348400       0.94085100
    15  Cl         0.73369600       0.33348400       0.44085100
    16  Cl         0.26630400       0.66651600       0.94085100
    17  Cl         0.33962600       0.91533600       0.36525110
    18  Cl         0.66037400       0.08466400       0.86525110
    19  Cl         0.83962600       0.08466400       0.36525110
    20  Cl         0.16037400       0.91533600       0.86525110
    21  Cl         0.55945600       0.79058600       0.79020100
    22  Cl         0.44054400       0.20941400       0.29020100
    23  Cl         0.05945600       0.20941400       0.79020100
    24  Cl         0.94054400       0.79058600       0.29020100
    25  C          0.60992000       0.80312000       0.43284000
    26  C          0.39008000       0.19688000       0.93284000
    27  C          0.10992000       0.19688000       0.43284000
    28  C          0.89008000       0.80312000       0.93284000
    29  H          0.68787000       0.80604100       0.48927200
    30  H          0.31213000       0.19395900      -0.01072800
    31  H          0.18787000       0.19395900       0.48927200
    32  H          0.81213000       0.80604100      -0.01072800
    33  C          0.58392000       0.67812000       0.38494000
    34  C          0.41608000       0.32188000       0.88494000
    35  C          0.08392000       0.32188000       0.38494000
    36  C          0.91608000       0.67812000       0.88494000
    37  H          0.60028900       0.63105500       0.49554000
    38  H          0.39971100       0.36894500      -0.00446000
    39  H          0.10028900       0.36894500       0.49554000
    40  H          0.89971100       0.63105500      -0.00446000
    41  C          0.45892000       0.65712000       0.33314000
    42  C          0.54108000       0.34288000       0.83314000
    43  C          0.95892000       0.34288000       0.33314000
    44  C          0.04108000       0.65712000       0.83314000
    45  H          0.43936600       0.70003700       0.21960600
    46  H          0.56063400       0.29996300       0.71960600
    47  H          0.93936600       0.29996300       0.21960600
    48  H          0.06063400       0.70003700       0.71960600
    49  C          0.38142000       0.69553000       0.48884000
    50  C          0.61858000       0.30447000      -0.01116000
    51  C          0.88142000       0.30447000       0.48884000
    52  C          0.11858000       0.69553000      -0.01116000
    53  H          0.40295900       0.64946100       0.59824800
    54  H          0.59704100       0.35053900       0.09824800
    55  H          0.90295900       0.35053900       0.59824800
    56  H          0.09704100       0.64946100       0.09824800
    57  C          0.39723000       0.82203000       0.53754000
    58  C          0.60277000       0.17797000       0.03754000
    59  C          0.89723000       0.17797000       0.53754000
    60  C          0.10277000       0.82203000       0.03754000
    61  H          0.35431000       0.83687400       0.65283800
    62  H          0.64569000       0.16312600       0.15283800
    63  H          0.85431000       0.16312600       0.65283800
    64  H          0.14569000       0.83687400       0.15283800
    65  C          0.52383000       0.85123000       0.57074000
    66  C          0.47617000       0.14877000       0.07074000
    67  C          0.02383000       0.14877000       0.57074000
    68  C          0.97617000       0.85123000       0.07074000
    69  H          0.53253300       0.93636500       0.57659900
    70  H          0.46746700       0.06363500       0.07659900
    71  H          0.03253300       0.06363500       0.57659900
    72  H          0.96746700       0.93636500       0.07659900
