data_HCCYHG02
_symmetry_space_group_name_H-M    'P1'
_symmetry_Int_Tables_number       1
loop_
_symmetry_equiv_pos_site_id
_symmetry_equiv_pos_as_xyz
1 x,y,z
_cell_length_a                   8.5021
_cell_length_b                   10.2511
_cell_length_c                   13.9143
_cell_angle_alpha                90.0
_cell_angle_beta                 121.261
_cell_angle_gamma                90.0
loop_
_atom_site_label
_atom_site_type_symbol
_atom_site_fract_x
_atom_site_fract_y
_atom_site_fract_z
     1  Cl         0.00390000       0.35910000       0.31940000
     2  Cl        -0.00390000       0.85910000       0.18060000
     3  Cl        -0.00390000       0.64090000       0.68060000
     4  Cl         0.00390000       0.14090000       0.81940000
     5  Cl         0.21140000       0.12020000       0.15530000
     6  Cl         0.78860000       0.62020000       0.34470000
     7  Cl         0.78860000       0.87980000       0.84470000
     8  Cl         0.21140000       0.37980000       0.65530000
     9  Cl         0.33720000       0.50220000       0.30050000
    10  Cl         0.66280000       0.00220000       0.19950000
    11  Cl         0.66280000       0.49780000       0.69950000
    12  Cl         0.33720000      -0.00220000       0.80050000
    13  Cl         0.71140000       0.35040000       0.46480000
    14  Cl         0.28860000       0.85040000       0.03520000
    15  Cl         0.28860000       0.64960000       0.53520000
    16  Cl         0.71140000       0.14960000       0.96480000
    17  Cl         0.57570000       0.17050000       0.59370000
    18  Cl         0.42430000       0.67050000       0.90630000
    19  Cl         0.42430000       0.82950000       0.40630000
    20  Cl         0.57570000       0.32950000       0.09370000
    21  Cl         0.14770000       0.09720000       0.47370000
    22  Cl         0.85230000       0.59720000       0.02630000
    23  Cl         0.85230000       0.90280000       0.52630000
    24  Cl         0.14770000       0.40280000       0.97370000
    25  C          0.09920000       0.22130000       0.28770000
    26  C          0.90080000       0.72130000       0.21230000
    27  C          0.90080000       0.77870000       0.71230000
    28  C          0.09920000       0.27870000       0.78770000
    29  C          0.18010000       0.26440000       0.21710000
    30  C          0.81990000       0.76440000       0.28290000
    31  C          0.81990000       0.73560000       0.78290000
    32  C          0.18010000       0.23560000       0.71710000
    33  C          0.36700000       0.33430000       0.28100000
    34  C          0.63300000       0.83430000       0.21900000
    35  C          0.63300000       0.66570000       0.71900000
    36  C          0.36700000       0.16570000       0.78100000
    37  C          0.49760000       0.26490000       0.39130000
    38  C          0.50240000       0.76490000       0.10870000
    39  C          0.50240000       0.73510000       0.60870000
    40  C          0.49760000       0.23510000       0.89130000
    41  C          0.41170000       0.24570000       0.46220000
    42  C          0.58830000       0.74570000       0.03780000
    43  C          0.58830000       0.75430000       0.53780000
    44  C          0.41170000       0.25430000       0.96220000
    45  C          0.24750000       0.15450000       0.39580000
    46  C          0.75250000       0.65450000       0.10420000
    47  C          0.75250000       0.84550000       0.60420000
    48  C          0.24750000       0.34550000       0.89580000
    49  H         -0.02030000       0.14860000       0.23630000
    50  H          0.02030000       0.64860000       0.26370000
    51  H          0.02030000       0.85140000       0.76370000
    52  H         -0.02030000       0.35140000       0.73630000
    53  H          0.08680000       0.33220000       0.15530000
    54  H          0.91320000       0.83220000       0.34470000
    55  H          0.91320000       0.66780000       0.84470000
    56  H          0.08680000       0.16780000       0.65530000
    57  H          0.41740000       0.33060000       0.23110000
    58  H          0.58260000       0.83060000       0.26890000
    59  H          0.58260000       0.66940000       0.76890000
    60  H          0.41740000       0.16940000       0.73110000
    61  H          0.53690000       0.17310000       0.37740000
    62  H          0.46310000       0.67310000       0.12260000
    63  H          0.46310000       0.82690000       0.62260000
    64  H          0.53690000       0.32690000       0.87740000
    65  H          0.37970000       0.33670000       0.48110000
    66  H          0.62030000       0.83670000       0.01890000
    67  H          0.62030000       0.66330000       0.51890000
    68  H          0.37970000       0.16330000       0.98110000
    69  H          0.30000000       0.05940000       0.38030000
    70  H          0.70000000       0.55940000       0.11970000
    71  H          0.70000000       0.94060000       0.61970000
    72  H          0.30000000       0.44060000       0.88030000
