data_HCCYHG06
_symmetry_space_group_name_H-M    'P1'
_symmetry_Int_Tables_number       1
loop_
_symmetry_equiv_pos_site_id
_symmetry_equiv_pos_as_xyz
1 x,y,z
_cell_length_a                   11.2173
_cell_length_b                   7.2482
_cell_length_c                   24.9787
_cell_angle_alpha                90.0
_cell_angle_beta                 90.0
_cell_angle_gamma                90.0
loop_
_atom_site_label
_atom_site_type_symbol
_atom_site_fract_x
_atom_site_fract_y
_atom_site_fract_z
     1  Cl         0.57453700       0.08821100       0.69981300
     2  Cl         0.92546300       0.91178900       0.19981300
     3  Cl         0.42546300       0.58821100       0.80018700
     4  Cl         0.07453700       0.41178900       0.30018700
     5  Cl         0.42546300       0.91178900       0.30018700
     6  Cl         0.07453700       0.08821100       0.80018700
     7  Cl         0.57453700       0.41178900       0.19981300
     8  Cl         0.92546300       0.58821100       0.69981300
     9  Cl         0.30475800       0.22148110       0.71735400
    10  Cl         0.19524200       0.77851890       0.21735400
    11  Cl         0.69524200       0.72148110       0.78264600
    12  Cl         0.80475800       0.27851890       0.28264600
    13  Cl         0.69524200       0.77851890       0.28264600
    14  Cl         0.80475800       0.22148110       0.78264600
    15  Cl         0.30475800       0.27851890       0.21735400
    16  Cl         0.19524200       0.72148110       0.71735400
    17  Cl         0.22046700       0.27146110       0.59491400
    18  Cl         0.27953300       0.72853890       0.09491400
    19  Cl         0.77953300       0.77146110       0.90508600
    20  Cl         0.72046700       0.22853890       0.40508600
    21  Cl         0.77953300       0.72853890       0.40508600
    22  Cl         0.72046700       0.27146110       0.90508600
    23  Cl         0.22046700       0.22853890       0.09491400
    24  Cl         0.27953300       0.77146110       0.59491400
    25  Cl         0.42523800       0.26453120       0.50487300
    26  Cl         0.07476200       0.73546880       0.00487300
    27  Cl         0.57476200       0.76453120      -0.00487300
    28  Cl         0.92523800       0.23546880       0.49512700
    29  Cl         0.57476200       0.73546880       0.49512700
    30  Cl         0.92523800       0.26453120      -0.00487300
    31  Cl         0.42523800       0.23546880       0.00487300
    32  Cl         0.07476200       0.76453120       0.50487300
    33  Cl         0.64098700       0.11061110       0.57336300
    34  Cl         0.85901300       0.88938890       0.07336300
    35  Cl         0.35901300       0.61061110       0.92663700
    36  Cl         0.14098700       0.38938890       0.42663700
    37  Cl         0.35901300       0.88938890       0.42663700
    38  Cl         0.14098700       0.11061110       0.92663700
    39  Cl         0.64098700       0.38938890       0.07336300
    40  Cl         0.85901300       0.61061110       0.57336300
    41  Cl         0.58352700       0.64990100       0.64334300
    42  Cl         0.91647300       0.35009900       0.14334300
    43  Cl         0.41647300       0.14990100       0.85665700
    44  Cl         0.08352700       0.85009900       0.35665700
    45  Cl         0.41647300       0.35009900       0.35665700
    46  Cl         0.08352700       0.64990100       0.85665700
    47  Cl         0.58352700       0.85009900       0.14334300
    48  Cl         0.91647300       0.14990100       0.64334300
    49  C          0.52773000       0.31984000       0.68447130
    50  C          0.97227000       0.68016000       0.18447130
    51  C          0.47227000       0.81984000       0.81552870
    52  C          0.02773000       0.18016000       0.31552870
    53  C          0.47227000       0.68016000       0.31552870
    54  C          0.02773000       0.31984000       0.81552870
    55  C          0.52773000       0.18016000       0.18447130
    56  C          0.97227000       0.81984000       0.68447130
    57  H          0.53686600       0.39532400       0.71772100
    58  H          0.96313400       0.60467600       0.21772100
    59  H          0.46313400       0.89532400       0.78227900
    60  H          0.03686600       0.10467600       0.28227900
    61  H          0.46313400       0.60467600       0.28227900
    62  H          0.03686600       0.39532400       0.78227900
    63  H          0.53686600       0.10467600       0.21772100
    64  H          0.96313400       0.89532400       0.71772100
    65  C          0.39693000       0.32874000       0.66778130
    66  C          0.10307000       0.67126000       0.16778130
    67  C          0.60307000       0.82874000       0.83221870
    68  C          0.89693000       0.17126000       0.33221870
    69  C          0.60307000       0.67126000       0.33221870
    70  C          0.89693000       0.32874000       0.83221870
    71  C          0.39693000       0.17126000       0.16778130
    72  C          0.10307000       0.82874000       0.66778130
    73  H          0.37395500       0.46186200       0.66612800
    74  H          0.12604500       0.53813800       0.16612800
    75  H          0.62604500       0.96186200       0.83387200
    76  H          0.87395500       0.03813800       0.33387200
    77  H          0.62604500       0.53813800       0.33387200
    78  H          0.87395500       0.46186200       0.83387200
    79  H          0.37395500       0.03813800       0.16612800
    80  H          0.12604500       0.96186200       0.66612800
    81  C          0.37503000       0.24614000       0.61227130
    82  C          0.12497000       0.75386000       0.11227130
    83  C          0.62497000       0.74614000       0.88772870
    84  C          0.87503000       0.25386000       0.38772870
    85  C          0.62497000       0.75386000       0.38772870
    86  C          0.87503000       0.24614000       0.88772870
    87  C          0.37503000       0.25386000       0.11227130
    88  C          0.12497000       0.74614000       0.61227130
    89  H          0.39701600       0.11241300       0.61234000
    90  H          0.10298400       0.88758700       0.11234000
    91  H          0.60298400       0.61241300       0.88766000
    92  H          0.89701600       0.38758700       0.38766000
    93  H          0.60298400       0.88758700       0.38766000
    94  H          0.89701600       0.11241300       0.88766000
    95  H          0.39701600       0.38758700       0.11234000
    96  H          0.10298400       0.61241300       0.61234000
    97  C          0.45083000       0.34934000       0.57107120
    98  C          0.04917000       0.65066000       0.07107120
    99  C          0.54917000       0.84934000       0.92892880
   100  C          0.95083000       0.15066000       0.42892880
   101  C          0.54917000       0.65066000       0.42892880
   102  C          0.95083000       0.34934000       0.92892880
   103  C          0.45083000       0.15066000       0.07107120
   104  C          0.04917000       0.84934000       0.57107120
   105  H          0.42646700       0.48197800       0.57185900
   106  H          0.07353300       0.51802200       0.07185900
   107  H          0.57353300      -0.01802200       0.92814100
   108  H          0.92646700       0.01802200       0.42814100
   109  H          0.57353300       0.51802200       0.42814100
   110  H          0.92646700       0.48197800       0.92814100
   111  H          0.42646700       0.01802200       0.07185900
   112  H          0.07353300      -0.01802200       0.57185900
   113  C          0.58403000       0.33994000       0.58403130
   114  C          0.91597000       0.66006000       0.08403130
   115  C          0.41597000       0.83994000       0.91596870
   116  C          0.08403000       0.16006000       0.41596870
   117  C          0.41597000       0.66006000       0.41596870
   118  C          0.08403000       0.33994000       0.91596870
   119  C          0.58403000       0.16006000       0.08403130
   120  C          0.91597000       0.83994000       0.58403130
   121  H          0.62682300       0.42544500       0.55918200
   122  H          0.87317700       0.57455500       0.05918200
   123  H          0.37317700       0.92544500       0.94081800
   124  H          0.12682300       0.07455500       0.44081800
   125  H          0.37317700       0.57455500       0.44081800
   126  H          0.12682300       0.42544500       0.94081800
   127  H          0.62682300       0.07455500       0.05918200
   128  H          0.87317700       0.92544500       0.55918200
   129  C          0.60883000       0.40314000       0.64168120
   130  C          0.89117000       0.59686000       0.14168120
   131  C          0.39117000       0.90314000       0.85831880
   132  C          0.10883000       0.09686000       0.35831880
   133  C          0.39117000       0.59686000       0.35831880
   134  C          0.10883000       0.40314000       0.85831880
   135  C          0.60883000       0.09686000       0.14168120
   136  C          0.89117000       0.90314000       0.64168120
   137  H          0.69388800       0.37688900       0.65090500
   138  H          0.80611200       0.62311100       0.15090500
   139  H          0.30611200       0.87688900       0.84909500
   140  H          0.19388800       0.12311100       0.34909500
   141  H          0.30611200       0.62311100       0.34909500
   142  H          0.19388800       0.37688900       0.84909500
   143  H          0.69388800       0.12311100       0.15090500
   144  H          0.80611200       0.87688900       0.65090500
