data_HECPAJ01
_symmetry_space_group_name_H-M    'P1'
_symmetry_Int_Tables_number       1
loop_
_symmetry_equiv_pos_site_id
_symmetry_equiv_pos_as_xyz
1 x,y,z
_cell_length_a                   13.17498
_cell_length_b                   13.70629
_cell_length_c                   14.47191
_cell_angle_alpha                70.2172
_cell_angle_beta                 72.91201
_cell_angle_gamma                70.7763
loop_
_atom_site_label
_atom_site_type_symbol
_atom_site_fract_x
_atom_site_fract_y
_atom_site_fract_z
     1  C          0.01995000       0.62994000       0.72576000
     2  C          0.98005000       0.37006000       0.27424000
     3  C          0.95274000       0.63005000       0.82007000
     4  C          0.04726000       0.36995000       0.17993000
     5  H          0.87740000       0.64100000       0.82910000
     6  H          0.12260000       0.35900000       0.17090000
     7  C         -0.00348000       0.61436000       0.89667000
     8  C          0.00348000       0.38564000       0.10333000
     9  H          0.95270000       0.61410000       0.96010000
    10  H          0.04730000       0.38590000       0.03990000
    11  C          0.10597000       0.59885000       0.88146000
    12  C          0.89403000       0.40115000       0.11854000
    13  H          0.13650000       0.58590000       0.93610000
    14  H          0.86350000       0.41410000       0.06390000
    15  C          0.17555000       0.60114000       0.78775000
    16  C          0.82445000       0.39886000       0.21225000
    17  H          0.25040000       0.59180000       0.77960000
    18  H          0.74960000       0.40820000       0.22040000
    19  C          0.13064000       0.61734000       0.70734000
    20  C          0.86936000       0.38266000       0.29266000
    21  C          0.19654000       0.62004000       0.60344000
    22  C          0.80346000       0.37996000       0.39656000
    23  H          0.19710000       0.55680000       0.58690000
    24  H          0.80290000       0.44320000       0.41310000
    25  H          0.15980000       0.68220000       0.55710000
    26  H          0.84020000       0.31780000       0.44290000
    27  C          0.35384000       0.70864000       0.53834000
    28  C          0.64616000       0.29136000       0.46166000
    29  C          0.36585000       0.87235000       0.45015000
    30  C          0.63415000       0.12765000       0.54985000
    31  H          0.33390000       0.94250000       0.41780000
    32  H          0.66610000       0.05750000       0.58220000
    33  C          0.47635000       0.84554000       0.44695000
    34  C          0.52365000       0.15446000       0.55305000
    35  H          0.51560000       0.89710000       0.41340000
    36  H          0.48440000       0.10290000       0.58660000
    37  C          0.53004000       0.74324000       0.49254000
    38  C          0.46996000       0.25676000       0.50746000
    39  H          0.60490000       0.72400000       0.49160000
    40  H          0.39510000       0.27600000       0.50840000
    41  C          0.46594000       0.67034000       0.54014000
    42  C          0.53406000       0.32966000       0.45986000
    43  C          0.48074000       0.56033000       0.59304000
    44  C          0.51926000       0.43967000       0.40696000
    45  C          0.58084000       0.47803000       0.62124000
    46  C          0.41916000       0.52197000       0.37876000
    47  C          0.76174000       0.43853000       0.62014000
    48  C          0.23826000       0.56147000       0.37986000
    49  C          0.75824000       0.33614000       0.67534000
    50  C          0.24176000       0.66386000       0.32466000
    51  C          0.65984000       0.30784000       0.70204000
    52  C          0.34016000       0.69216000       0.29796000
    53  C          0.92114000       0.18954000       0.63885000
    54  C          0.07886000       0.81046000       0.36115000
    55  H          0.98260000       0.14050000       0.66680000
    56  H          0.01740000       0.85950000       0.33320000
    57  H          0.94710000       0.23450000       0.57480000
    58  H          0.05290000       0.76550000       0.42520000
    59  H          0.87800000       0.14980000       0.63040000
    60  H          0.12200000       0.85020000       0.36960000
    61  C          0.87175000       0.22994000       0.79955000
    62  C          0.12825000       0.77006000       0.20045000
    63  C          0.80796000       0.27106000       0.95425000
    64  C          0.19204000       0.72894000       0.04575000
    65  H          0.81210000       0.19630000       0.98560000
    66  H          0.18790000       0.80370000       0.01440000
    67  H          0.74490000       0.31330000      -0.01040000
    68  H          0.25510000       0.68670000       0.01040000
    69  H          0.87310000       0.28660000       0.95590000
    70  H          0.12690000       0.71340000       0.04410000
    71  F          0.97557000       0.64533000       0.64654000
    72  F          0.02443000       0.35467000       0.35346000
    73  N          0.30803000       0.62403000       0.58753000
    74  N          0.69197000       0.37597000       0.41247000
    75  N          0.30004000       0.80623000       0.49563000
    76  N          0.69996000       0.19377000       0.50437000
    77  N          0.38583000       0.53303000       0.62103000
    78  N          0.61417000       0.46697000       0.37897000
    79  N          0.67163000       0.51313000       0.58973000
    80  N          0.32837000       0.48687000       0.41027000
    81  N          0.56793000       0.38153000       0.67453000
    82  N          0.43207000       0.61847000       0.32547000
    83  N          0.85553000       0.47143000       0.58874000
    84  N          0.14447000       0.52857000       0.41126000
    85  H          0.85520000       0.53570000       0.55210000
    86  H          0.14480000       0.46430000       0.44790000
    87  H          0.91540000       0.42800000       0.60540000
    88  H          0.08460000       0.57200000       0.39460000
    89  N          0.65013000       0.20883000       0.75413000
    90  N          0.34987000       0.79117000       0.24587000
    91  H          0.58760000       0.19420000       0.76880000
    92  H          0.41240000       0.80580000       0.23120000
    93  H          0.70620000       0.15990000       0.77290000
    94  H          0.29380000       0.84010000       0.22710000
    95  N          0.85373000       0.25583000       0.70624000
    96  N          0.14627000       0.74417000       0.29376000
    97  O          0.94334000       0.15543000       0.83214000
    98  O          0.05666000       0.84457000       0.16786000
    99  O          0.79843000       0.29613000       0.85263000
   100  O          0.20157000       0.70387000       0.14737000
   101  C          0.00894000       0.10584000       0.20315000
   102  C          0.99106000       0.89416000       0.79685000
   103  C          0.93395000       0.10864000       0.29115000
   104  C          0.06605000       0.89136000       0.70885000
   105  H          0.86000000       0.11770000       0.29450000
   106  H          0.14000000       0.88230000       0.70550000
   107  C          0.97054000       0.09784000       0.37366000
   108  C          0.02946000       0.90216000       0.62634000
   109  H          0.92160000       0.09860000       0.43470000
   110  H          0.07840000       0.90140000       0.56530000
   111  C          0.07806000       0.08594000       0.36655000
   112  C          0.92194000       0.91406000       0.63345000
   113  H          0.10200000       0.07910000       0.42330000
   114  H          0.89800000       0.92090000       0.57670000
   115  C          0.15325000       0.08354000       0.27804000
   116  C          0.84675000       0.91646000       0.72196000
   117  H          0.22700000       0.07510000       0.27510000
   118  H          0.77300000       0.92490000       0.72490000
   119  C          0.11844000       0.09363000       0.19344000
   120  C          0.88156000       0.90637000       0.80656000
   121  C          0.19394000       0.09324000       0.09164000
   122  C          0.80606000       0.90676000       0.90836000
   123  H          0.19850000       0.02860000       0.07510000
   124  H          0.80150000       0.97140000       0.92490000
   125  H          0.16180000       0.15410000       0.04140000
   126  H          0.83820000       0.84590000       0.95860000
   127  C          0.34914000       0.18274000       0.03844000
   128  C          0.65086000       0.81726000       0.96156000
   129  C          0.36375000       0.34374000       0.94646000
   130  C          0.63625000       0.65626000       0.05354000
   131  H          0.33400000       0.41300000       0.91090000
   132  H          0.66600000       0.58700000       0.08910000
   133  C          0.47385000       0.31664000       0.95036000
   134  C          0.52615000       0.68336000       0.04964000
   135  H          0.51440000       0.36730000       0.91770000
   136  H          0.48560000       0.63270000       0.08230000
   137  C          0.52324000       0.21654000       0.00174000
   138  C          0.47676000       0.78346000      -0.00174000
   139  H          0.59700000       0.19720000       0.00480000
   140  H          0.40300000       0.80280000      -0.00480000
   141  C          0.45804000       0.14553000       0.04883000
   142  C          0.54196000       0.85447000       0.95117000
   143  C          0.47104000       0.03514000       0.10544000
   144  C          0.52896000       0.96486000       0.89456000
   145  C          0.56764000       0.95793000       0.14243000
   146  C          0.43236000       0.04207000       0.85757000
   147  C          0.74454000       0.92364000       0.15564000
   148  C          0.25546000       0.07636000       0.84436000
   149  C          0.74063000       0.81943000       0.21114000
   150  C          0.25937000       0.18057000       0.78886000
   151  C          0.64584000       0.78844000       0.22664000
   152  C          0.35416000       0.21156000       0.77336000
   153  C          0.90604000       0.66784000       0.19425000
   154  C          0.09396000       0.33216000       0.80575000
   155  H          0.96680000       0.62530000       0.22600000
   156  H          0.03320000       0.37470000       0.77400000
   157  H          0.93280000       0.70690000       0.12730000
   158  H          0.06720000       0.29310000       0.87270000
   159  H          0.86630000       0.62160000       0.19140000
   160  H          0.13370000       0.37840000       0.80860000
   161  C          0.84484000       0.73264000       0.34494000
   162  C          0.15516000       0.26736000       0.65506000
   163  C          0.78136000       0.80556000       0.48135000
   164  C          0.21864000       0.19444000       0.51865000
   165  H          0.74520000       0.75350000       0.53040000
   166  H          0.25480000       0.24650000       0.46960000
   167  H          0.74650000       0.87460000       0.49380000
   168  H          0.25350000       0.12540000       0.50620000
   169  H          0.85710000       0.78540000       0.48550000
   170  H          0.14290000       0.21460000       0.51450000
   171  F          0.97337000       0.11733000       0.11963000
   172  F          0.02663000       0.88267000       0.88037000
   173  N          0.30273000       0.09763000       0.08643000
   174  N          0.69727000       0.90237000       0.91357000
   175  N          0.29734000       0.27903000       0.98937000
   176  N          0.70266000       0.72097000       0.01063000
   177  N          0.37743000       0.00883000       0.12783000
   178  N          0.62257000       0.99117000       0.87217000
   179  N          0.65623000      -0.00637000       0.11953000
   180  N          0.34377000       0.00637000       0.88047000
   181  N          0.55703000       0.85933000       0.19123000
   182  N          0.44297000       0.14067000       0.80877000
   183  N          0.83393000       0.95863000       0.13524000
   184  N          0.16607000       0.04137000       0.86476000
   185  H          0.83380000       0.02340000       0.10040000
   186  H          0.16620000       0.97660000       0.89960000
   187  H          0.89170000       0.91640000       0.15690000
   188  H          0.10830000       0.08360000       0.84310000
   189  N          0.63673000       0.68823000       0.27683000
   190  N          0.36327000       0.31177000       0.72317000
   191  H          0.57650000       0.67160000       0.28520000
   192  H          0.42350000       0.32840000       0.71480000
   193  H          0.69100000       0.64080000       0.30050000
   194  H          0.30900000       0.35920000       0.69950000
   195  N          0.83263000       0.74343000       0.25193000
   196  N          0.16737000       0.25657000       0.74807000
   197  O          0.91363000       0.66043000       0.38573000
   198  O          0.08637000       0.33957000       0.61427000
   199  O          0.77383000       0.81013000       0.38263000
   200  O          0.22617000       0.18987000       0.61737000
