data_HECPAJ
_symmetry_space_group_name_H-M    'P1'
_symmetry_Int_Tables_number       1
loop_
_symmetry_equiv_pos_site_id
_symmetry_equiv_pos_as_xyz
1 x,y,z
_cell_length_a                   8.09175
_cell_length_b                   10.89376
_cell_length_c                   11.79496
_cell_angle_alpha                88.33801
_cell_angle_beta                 82.3442
_cell_angle_gamma                78.7872
loop_
_atom_site_label
_atom_site_type_symbol
_atom_site_fract_x
_atom_site_fract_y
_atom_site_fract_z
     1  C          0.64163000       0.87152000       0.04872000
     2  C          0.35837000       0.12848000       0.95128000
     3  C          0.60404000       0.83033000       0.94838000
     4  C          0.39596000       0.16967000       0.05162000
     5  H          0.68090000       0.82590000       0.88190000
     6  H          0.31910000       0.17410000       0.11810000
     7  C          0.45004000       0.79573000       0.94858000
     8  C          0.54996000       0.20427000       0.05142000
     9  H          0.42180000       0.76690000       0.88160000
    10  H          0.57820000       0.23310000       0.11840000
    11  C          0.33644000       0.80343000       0.04763000
    12  C          0.66356000       0.19657000       0.95237000
    13  H          0.23200000       0.77990000       0.04730000
    14  H          0.76800000       0.22010000       0.95270000
    15  C          0.37814000       0.84643000       0.14752000
    16  C          0.62186000       0.15357000       0.85248000
    17  H          0.30110000       0.85130000       0.21400000
    18  H          0.69890000       0.14870000       0.78600000
    19  C          0.53193000       0.88182000       0.14982000
    20  C          0.46807000       0.11818000       0.85018000
    21  C          0.58543000       0.93043000       0.25492000
    22  C          0.41457000       0.06957000       0.74508000
    23  H          0.69100000       0.87760000       0.27080000
    24  H          0.30900000       0.12240000       0.72920000
    25  H          0.60710000       0.01410000       0.23920000
    26  H          0.39290000       0.98590000       0.76080000
    27  C          0.34343000       0.03332000       0.40052000
    28  C          0.65657000       0.96668000       0.59948000
    29  C          0.19704000       0.22723000       0.41733000
    30  C          0.80296000       0.77277000       0.58267000
    31  H          0.17380000       0.30950000       0.39160000
    32  H          0.82620000       0.69050000       0.60840000
    33  C          0.09904000       0.19713000       0.51783000
    34  C          0.90096000       0.80287000       0.48217000
    35  H          0.01540000       0.25840000       0.55580000
    36  H          0.98460000       0.74160000       0.44420000
    37  C          0.12663000       0.07702000       0.56012000
    38  C          0.87337000       0.92298000       0.43988000
    39  H          0.06250000       0.05470000       0.62610000
    40  H          0.93750000       0.94530000       0.37390000
    41  C          0.25503000      -0.00998000       0.49948190
    42  C          0.74497000       0.00998000       0.50051810
    43  C          0.32953000       0.86022000       0.50550190
    44  C          0.67047000       0.13978000       0.49449810
    45  C          0.28623000       0.76672000       0.59160190
    46  C          0.71377000       0.23328000       0.40839810
    47  C          0.14273000       0.72642000       0.76342000
    48  C          0.85727000       0.27358000       0.23658000
    49  C          0.20173000       0.59982000       0.74612000
    50  C          0.79827000       0.40018000       0.25388000
    51  C          0.30844000       0.56172000       0.64572000
    52  C          0.69156000       0.43828000       0.35428000
    53  C          0.28774000       0.46843000       0.91093000
    54  C          0.71226000       0.53157000       0.08907000
    55  H          0.24100000       0.41790000       0.97010000
    56  H          0.75900000       0.58210000       0.02990000
    57  H          0.31390000       0.54040000       0.94430000
    58  H          0.68610000       0.45960000       0.05570000
    59  H          0.38940000       0.42030000       0.87050000
    60  H          0.61060000       0.57970000       0.12950000
    61  C          0.02894000       0.45293000       0.83342000
    62  C          0.97106000       0.54707000       0.16658000
    63  C          0.78105000       0.45115000       0.74734000
    64  C          0.21895000       0.54885000       0.25266000
    65  H          0.80810000       0.36140000       0.75020000
    66  H          0.19190000       0.63860000       0.24980000
    67  H          0.73650000       0.47720000       0.67720000
    68  H          0.26350000       0.52280000       0.32280000
    69  H          0.69770000       0.48170000       0.81100000
    70  H          0.30230000       0.51830000       0.18900000
    71  F          0.79392000       0.90673160       0.05006130
    72  F          0.20608000       0.09326840       0.94993870
    73  N          0.46053000       0.93410180       0.35544160
    74  N          0.53947000       0.06589820       0.64455840
    75  N          0.31933000       0.14912000       0.35593190
    76  N          0.68067000       0.85088000       0.64406810
    77  N          0.45223000       0.82834180       0.41847160
    78  N          0.54777000       0.17165820       0.58152840
    79  N          0.18503000       0.81212180       0.68472160
    80  N          0.81497000       0.18787820       0.31527840
    81  N          0.35243000       0.64679180       0.56675170
    82  N          0.64757000       0.35320820       0.43324830
    83  N          0.04113000       0.77162000       0.85934180
    84  N          0.95887000       0.22838000       0.14065820
    85  H          0.00680000       0.85100000       0.86800000
    86  H         -0.00680000       0.14900000       0.13200000
    87  H          0.01080000       0.72100000       0.91180000
    88  H         -0.01080000       0.27900000       0.08820000
    89  N          0.37154000       0.44062000       0.62282000
    90  N          0.62846000       0.55938000       0.37718000
    91  H          0.43710000       0.41940000       0.56010000
    92  H          0.56290000       0.58060000       0.43990000
    93  H          0.34640000       0.38400000       0.67080000
    94  H          0.65360000       0.61600000       0.32920000
    95  N          0.16403000       0.50882000       0.83140180
    96  N          0.83597000       0.49118000       0.16859820
    97  O         -0.00173000       0.37092000       0.90020190
    98  O          0.00173000       0.62908000       0.09979810
    99  O          0.93187000       0.50052000       0.75272000
   100  O          0.06813000       0.49948000       0.24728000
