data_HECPAJ02
_symmetry_space_group_name_H-M    'P1'
_symmetry_Int_Tables_number       1
loop_
_symmetry_equiv_pos_site_id
_symmetry_equiv_pos_as_xyz
1 x,y,z
_cell_length_a                   7.76439
_cell_length_b                   10.58549
_cell_length_c                   13.24548
_cell_angle_alpha                97.8386
_cell_angle_beta                 90.2957
_cell_angle_gamma                111.3639
loop_
_atom_site_label
_atom_site_type_symbol
_atom_site_fract_x
_atom_site_fract_y
_atom_site_fract_z
     1  F          0.69676000       0.31105000       0.61148000
     2  F          0.30324000       0.68895000       0.38852000
     3  O          0.79916000       0.04843000       0.43792000
     4  O          0.20084000       0.95157000       0.56208000
     5  O          0.02504000       0.21113000       0.37183190
     6  O         -0.02504000       0.78887000       0.62816810
     7  N          0.96535000       0.32293000       0.94597000
     8  N          0.03465000       0.67707000       0.05403000
     9  N          0.63845000       0.21533000       0.90508000
    10  N          0.36155000       0.78467000       0.09492000
    11  N          0.48194000       0.15753000       0.95358000
    12  N          0.51806000       0.84247000       0.04642000
    13  N          0.21844000       0.06483000       0.09084190
    14  N          0.78156000       0.93517000       0.90915810
    15  N          0.46194000       0.12833000       0.22142190
    16  N          0.53806000       0.87167000       0.77857810
    17  N          0.91136000       0.97417000       0.12832000
    18  N          0.08864000       0.02583000       0.87168000
    19  H          0.90518100       0.94981600       0.06304400
    20  H          0.09481900       0.05018400       0.93695600
    21  H          0.85099000       0.90270400       0.15605600
    22  H          0.14901000       0.09729600       0.84394400
    23  N          0.00734000      -0.00333000       0.33682000
    24  N         -0.00734000       0.00333000       0.66318000
    25  N          0.39995000       0.10223000       0.38902000
    26  N          0.60005000       0.89777000       0.61098000
    27  H          0.32452800       0.03854500       0.41889700
    28  H          0.67547200       0.96145500       0.58110300
    29  H          0.50629800       0.09417000       0.38797800
    30  H          0.49370200       0.90583000       0.61202200
    31  C          0.08586000       0.35704000       0.02474000
    32  C          0.91414000       0.64296000       0.97526000
    33  H          0.21006000       0.40068100       0.01292500
    34  H          0.78994000       0.59931900       0.98707500
    35  C          0.04336000       0.33334000       0.12394000
    36  C          0.95664000       0.66666000       0.87606000
    37  H          0.13775700       0.36107100       0.17492600
    38  H          0.86224300       0.63892900       0.82507400
    39  C          0.86546000       0.27014000       0.14673000
    40  C          0.13454000       0.72986000       0.85327000
    41  H          0.83550100       0.25297200       0.21267000
    42  H          0.16449900       0.74702800       0.78733000
    43  C          0.72975000       0.23183000       0.06832000
    44  C          0.27025000       0.76817000       0.93168000
    45  C          0.79145000       0.26233000       0.97077000
    46  C          0.20855000       0.73767000       0.02923000
    47  C          0.53505000       0.16753000       0.05132000
    48  C          0.46495000       0.83247000       0.94868000
    49  C          0.63136000       0.22074000       0.79647000
    50  C          0.36864000       0.77926000       0.20353000
    51  H          0.54779800       0.13251800       0.76187100
    52  H          0.45220200       0.86748200       0.23812900
    53  H          0.75361000       0.23590700       0.77179600
    54  H          0.24639000       0.76409300       0.22820400
    55  C          0.56855000       0.33064000       0.76897000
    56  C          0.43145000       0.66936000       0.23103000
    57  C          0.60417000       0.37125000       0.67487000
    58  C          0.39583000       0.62875000       0.32513000
    59  C          0.55008000       0.46977000       0.64345000
    60  C          0.44992000       0.53023000       0.35655000
    61  H          0.57779800       0.49609600       0.57955400
    62  H          0.42220200       0.50390400       0.42044600
    63  C          0.45539000       0.52795000       0.70734000
    64  C          0.54461000       0.47205000       0.29266000
    65  H          0.41942900       0.59607600       0.68760000
    66  H          0.58057100       0.40392400       0.31240000
    67  C          0.41209000       0.48785000       0.80015000
    68  C          0.58791000       0.51215000       0.19985000
    69  H          0.34237200       0.52540800       0.84252800
    70  H          0.65762800       0.47459200       0.15747200
    71  C          0.47196000       0.39114000       0.83087000
    72  C          0.52804000       0.60886000       0.16913000
    73  H          0.44603700       0.36646000       0.89551300
    74  H          0.55396300       0.63354000       0.10448700
    75  C          0.39405000       0.11633000       0.12572000
    76  C          0.60595000       0.88367000       0.87428000
    77  C          0.09135000       0.02473000       0.16122000
    78  C          0.90865000       0.97527000       0.83878000
    79  C          0.14595000       0.03963000       0.26432000
    80  C          0.85405000       0.96037000       0.73568000
    81  C          0.33245000       0.08783000       0.29062000
    82  C          0.66755000       0.91217000       0.70938000
    83  C          0.92923000       0.84966000       0.34403000
    84  C          0.07077000       0.15034000       0.65597000
    85  H          0.86688200       0.79972300       0.27994300
    86  H          0.13311800       0.20027700       0.72005700
    87  H          0.84279000       0.83389700       0.39671100
    88  H          0.15721000       0.16610300       0.60328900
    89  H          0.02727500       0.81941800       0.36006900
    90  H          0.97272500       0.18058200       0.63993100
    91  C          0.93305000       0.08365000       0.38543000
    92  C          0.06695000       0.91635000       0.61457000
    93  C          0.95952000       0.31225000       0.42344000
    94  C          0.04048000       0.68775000       0.57656000
    95  H          0.82957500       0.28544700       0.40657800
    96  H          0.17042500       0.71455300       0.59342200
    97  H          0.02560200       0.39945000       0.40227600
    98  H         -0.02560200       0.60055000       0.59772400
    99  H         -0.01996000       0.31909600       0.49584900
   100  H          0.01996000       0.68090400       0.50415100
