data_HETPAL
_symmetry_space_group_name_H-M    'P1'
_symmetry_Int_Tables_number       1
loop_
_symmetry_equiv_pos_site_id
_symmetry_equiv_pos_as_xyz
1 x,y,z
_cell_length_a                   25.722
_cell_length_b                   5.471
_cell_length_c                   8.582
_cell_angle_alpha                90.0
_cell_angle_beta                 98.92
_cell_angle_gamma                90.0
loop_
_atom_site_label
_atom_site_type_symbol
_atom_site_fract_x
_atom_site_fract_y
_atom_site_fract_z
     1  C          0.50340000       0.22130000       0.42300000
     2  C         -0.00340000       0.72130000       0.57700000
     3  C          0.49660000       0.77870000       0.57700000
     4  C          0.00340000       0.27870000       0.42300000
     5  C          0.45760000       0.08280000       0.39360000
     6  C          0.04240000       0.58280000       0.60640000
     7  C          0.54240000       0.91720000       0.60640000
     8  C          0.95760000       0.41720000       0.39360000
     9  C          0.54540000       0.13940000       0.53000000
    10  C          0.95460000       0.63940000       0.47000000
    11  C          0.45460000       0.86060000       0.47000000
    12  C          0.04540000       0.36060000       0.53000000
    13  C          0.41330000       0.17800000       0.27710000
    14  C          0.08670000       0.67800000       0.72290000
    15  C          0.58670000       0.82200000       0.72290000
    16  C          0.91330000       0.32200000       0.27710000
    17  C          0.32930000       0.08330000       0.13440000
    18  C          0.17070000       0.58330000       0.86560000
    19  C          0.67070000       0.91670000       0.86560000
    20  C          0.82930000       0.41670000       0.13440000
    21  C          0.30060000       0.84980000       0.08710000
    22  C          0.19940000       0.34980000       0.91290000
    23  C          0.69940000       0.15020000       0.91290000
    24  C          0.80060000       0.65020000       0.08710000
    25  H          0.30400000       0.68800000       0.29400000
    26  H          0.19600000       0.18800000       0.70600000
    27  H          0.69600000       0.31200000       0.70600000
    28  H          0.80400000       0.81200000       0.29400000
    29  H          0.50500000       0.37800000       0.36500000
    30  H         -0.00500000       0.87800000       0.63500000
    31  H          0.49500000       0.62200000       0.63500000
    32  H          0.00500000       0.12200000       0.36500000
    33  H          0.57500000       0.24600000       0.56600000
    34  H          0.92500000       0.74600000       0.43400000
    35  H          0.42500000       0.75400000       0.43400000
    36  H          0.07500000       0.25400000       0.56600000
    37  H          0.34200000       0.17800000       0.03300000
    38  H          0.15800000       0.67800000       0.96700000
    39  H          0.65800000       0.82200000       0.96700000
    40  H          0.84200000       0.32200000       0.03300000
    41  H          0.30600000       0.19100000       0.19000000
    42  H          0.19400000       0.69100000       0.81000000
    43  H          0.69400000       0.80900000       0.81000000
    44  H          0.80600000       0.30900000       0.19000000
    45  H          0.32400000       0.73000000       0.04900000
    46  H          0.17600000       0.23000000       0.95100000
    47  H          0.67600000       0.27000000       0.95100000
    48  H          0.82400000       0.77000000       0.04900000
    49  H          0.27500000       0.88300000       0.00400000
    50  H          0.22500000       0.38300000      -0.00400000
    51  H          0.72500000       0.11700000      -0.00400000
    52  H          0.77500000       0.61700000       0.00400000
    53  O          0.41240000       0.37390000       0.21290000
    54  O          0.08760000       0.87390000       0.78710000
    55  O          0.58760000       0.62610000       0.78710000
    56  O          0.91240000       0.12610000       0.21290000
    57  O          0.37390000       0.01860000       0.25110000
    58  O          0.12610000       0.51860000       0.74890000
    59  O          0.62610000      -0.01860000       0.74890000
    60  O          0.87390000       0.48140000       0.25110000
    61  O          0.27800000       0.74070000       0.20720000
    62  O          0.22200000       0.24070000       0.79280000
    63  O          0.72200000       0.25930000       0.79280000
    64  O          0.77800000       0.75930000       0.20720000
    65  C          0.49700000       0.21710000       0.91470000
    66  C          0.00300000       0.71710000       0.08530000
    67  C          0.50300000       0.78290000       0.08530000
    68  C         -0.00300000       0.28290000       0.91470000
    69  C          0.45540000       0.05290000       0.89430000
    70  C          0.04460000       0.55290000       0.10570000
    71  C          0.54460000       0.94710000       0.10570000
    72  C          0.95540000       0.44710000       0.89430000
    73  C          0.54200000       0.16360000       0.02100000
    74  C          0.95800000       0.66360000       0.97900000
    75  C          0.45800000       0.83640000       0.97900000
    76  C          0.04200000       0.33640000       0.02100000
    77  C          0.40790000       0.11940000       0.77890000
    78  C          0.09210000       0.61940000       0.22110000
    79  C          0.59210000       0.88060000       0.22110000
    80  C          0.90790000       0.38060000       0.77890000
    81  C          0.32520000      -0.01680000       0.64310000
    82  C          0.17480000       0.48320000       0.35690000
    83  C          0.67480000       0.01680000       0.35690000
    84  C          0.82520000       0.51680000       0.64310000
    85  C          0.29850000       0.74280000       0.61220000
    86  C          0.20150000       0.24280000       0.38780000
    87  C          0.70150000       0.25720000       0.38780000
    88  C          0.79850000       0.75720000       0.61220000
    89  H          0.34800000       0.49400000       0.58000000
    90  H          0.15200000      -0.00600000       0.42000000
    91  H          0.65200000       0.50600000       0.42000000
    92  H          0.84800000       0.00600000       0.58000000
    93  H          0.49300000       0.37900000       0.84900000
    94  H          0.00700000       0.87900000       0.15100000
    95  H          0.50700000       0.62100000       0.15100000
    96  H          0.99300000       0.12100000       0.84900000
    97  H          0.57200000       0.28000000       0.03900000
    98  H          0.92800000       0.78000000       0.96100000
    99  H          0.42800000       0.72000000       0.96100000
   100  H          0.07200000       0.22000000       0.03900000
   101  H          0.33400000       0.04500000       0.53900000
   102  H          0.16600000       0.54500000       0.46100000
   103  H          0.66600000       0.95500000       0.46100000
   104  H          0.83400000       0.45500000       0.53900000
   105  H          0.30600000       0.09900000       0.70300000
   106  H          0.19400000       0.59900000       0.29700000
   107  H          0.69400000       0.90100000       0.29700000
   108  H          0.80600000       0.40100000       0.70300000
   109  H          0.26300000       0.77100000       0.56000000
   110  H          0.23700000       0.27100000       0.44000000
   111  H          0.73700000       0.22900000       0.44000000
   112  H          0.76300000       0.72900000       0.56000000
   113  H          0.29700000       0.64000000       0.72000000
   114  H          0.20300000       0.14000000       0.28000000
   115  H          0.70300000       0.36000000       0.28000000
   116  H          0.79700000       0.86000000       0.72000000
   117  O          0.40110000       0.31750000       0.71650000
   118  O          0.09890000       0.81750000       0.28350000
   119  O          0.59890000       0.68250000       0.28350000
   120  O          0.90110000       0.18250000       0.71650000
   121  O          0.37350000       0.93600000       0.75310000
   122  O          0.12650000       0.43600000       0.24690000
   123  O          0.62650000       0.06400000       0.24690000
   124  O          0.87350000       0.56400000       0.75310000
   125  O          0.32420000       0.58860000       0.51390000
   126  O          0.17580000       0.08860000       0.48610000
   127  O          0.67580000       0.41140000       0.48610000
   128  O          0.82420000       0.91140000       0.51390000
