data_HETPAL02
_symmetry_space_group_name_H-M    'P1'
_symmetry_Int_Tables_number       1
loop_
_symmetry_equiv_pos_site_id
_symmetry_equiv_pos_as_xyz
1 x,y,z
_cell_length_a                   8.22523
_cell_length_b                   9.36399
_cell_length_c                   16.500812
_cell_angle_alpha                87.3067
_cell_angle_beta                 84.1605
_cell_angle_gamma                80.3386
loop_
_atom_site_label
_atom_site_type_symbol
_atom_site_fract_x
_atom_site_fract_y
_atom_site_fract_z
     1  O          0.23752000       0.18172000       0.58884120
     2  O          0.76248000       0.81828000       0.41115880
     3  O          0.31093000       0.17492000       0.45394130
     4  O          0.68907000       0.82508000       0.54605870
     5  O          0.39953000       0.13502000       0.73436140
     6  O          0.60047000       0.86498000       0.26563860
     7  H          0.49110000       0.15140000       0.71570000
     8  H          0.50890000       0.84860000       0.28430000
     9  C          0.22933000       0.23303000       0.51201170
    10  C          0.77067000       0.76697000       0.48798830
    11  C          0.35963000       0.05353000       0.60070180
    12  C          0.64037000       0.94647000       0.39929820
    13  H          0.46880000       0.07060000       0.57870000
    14  H          0.53120000       0.92940000       0.42130000
    15  H          0.33280000       0.97230000       0.57320000
    16  H          0.66720000       0.02770000       0.42680000
    17  C          0.10913000       0.37133000       0.50676170
    18  C          0.89087000       0.62867000       0.49323830
    19  C          0.08873000       0.43743000       0.43064180
    20  C          0.91127000       0.56257000       0.56935820
    21  H          0.14770000       0.39490000       0.38440000
    22  H          0.85230000       0.60510000       0.61560000
    23  C          0.35624000       0.02153000       0.69095190
    24  C          0.64376000       0.97847000       0.30904810
    25  H          0.24590000       0.00540000       0.71180000
    26  H          0.75410000      -0.00540000       0.28820000
    27  H          0.43260000       0.93290000       0.70060000
    28  H          0.56740000       0.06710000       0.29940000
    29  C          0.01953000       0.43313000       0.57644180
    30  C          0.98047000       0.56687000       0.42355820
    31  H          0.03230000       0.38770000       0.62730000
    32  H          0.96770000       0.61230000       0.37270000
    33  O          0.21763000       0.73652000       0.64386140
    34  O          0.78237000       0.26348000       0.35613860
    35  O          0.32633000       0.53282000       0.70993130
    36  O          0.67367000       0.46718000       0.29006870
    37  O          0.15863000       0.33612000       0.80952150
    38  O          0.84137000       0.66388000       0.19047850
    39  H          0.23050000       0.28610000       0.78020000
    40  H          0.76950000       0.71390000       0.21980000
    41  C          0.30823000       0.62013000       0.64344190
    42  C          0.69177000       0.37987000       0.35655810
    43  C          0.21974000       0.57843000       0.78292190
    44  C          0.78026000       0.42157000       0.21707810
    45  H          0.10700000       0.61130000       0.76970000
    46  H          0.89300000       0.38870000       0.23030000
    47  H          0.25830000       0.65730000       0.80730000
    48  H          0.74170000       0.34270000       0.19270000
    49  C          0.22634000       0.44973000       0.84072190
    50  C          0.77366000       0.55027000       0.15927810
    51  H          0.34050000       0.41460000       0.85070000
    52  H          0.65950000       0.58540000       0.14930000
    53  H          0.16510000       0.47880000       0.89230000
    54  H          0.83490000       0.52120000       0.10770000
    55  C          0.41013000       0.55713000       0.57006170
    56  C          0.58987000       0.44287000       0.42993830
    57  C          0.39033000       0.63023000       0.49518190
    58  C          0.60967000       0.36977000       0.50481810
    59  H          0.31640000       0.71660000       0.49220000
    60  H          0.68360000       0.28340000       0.50780000
    61  C          0.51913000       0.42633000       0.57458180
    62  C          0.48087000       0.57367000       0.42541820
    63  H          0.53090000       0.37710000       0.62450000
    64  H          0.46910000       0.62290000       0.37550000
    65  O          0.64553000       0.31782000       0.90607130
    66  O          0.35447000       0.68218000       0.09392870
    67  O          0.84903000       0.36203000       0.76068140
    68  O          0.15097000       0.63797000       0.23931860
    69  H          0.94040000       0.35530000       0.77770000
    70  H          0.05960000       0.64470000       0.22230000
    71  O          0.65563000       0.33473000       0.04063140
    72  O          0.34437000       0.66527000       0.95936860
    73  C          0.62463000       0.27093000       0.98370180
    74  C          0.37537000       0.72907000       0.01629820
    75  C          0.71634000       0.44934000       0.89182000
    76  C          0.28366000       0.55066000       0.10818000
    77  H          0.82250000       0.43820000       0.91410000
    78  H          0.17750000       0.56180000       0.08590000
    79  H          0.64320000       0.53020000       0.91750000
    80  H          0.35680000       0.46980000       0.08250000
    81  C          0.52134000       0.06534000       0.92292190
    82  C          0.47866000       0.93466000       0.07707810
    83  H          0.53510000       0.10900000       0.87150000
    84  H          0.46490000       0.89100000       0.12850000
    85  C          0.55893000       0.13144000       0.99100180
    86  C          0.44107000       0.86856000       0.00899820
    87  C          0.73744000       0.47503000       0.80112000
    88  C          0.26256000       0.52497000       0.19888000
    89  H          0.63030000       0.48370000       0.77990000
    90  H          0.36970000       0.51630000       0.22010000
    91  H          0.77810000       0.56590000       0.78940000
    92  H          0.22190000       0.43410000       0.21060000
    93  C          0.46344000       0.93426000       0.93209190
    94  C          0.53656000       0.06574000       0.06790810
    95  H          0.43920000       0.88990000       0.88650000
    96  H          0.56080000       0.11010000       0.11350000
    97  O          0.13803000       0.23742000       0.14151150
    98  O          0.86197000       0.76258000       0.85848850
    99  O          0.08943000       0.03172000       0.20765140
   100  O          0.91057000       0.96828000       0.79234860
   101  O          0.28133000       0.83588000       0.31316160
   102  O          0.71867000       0.16412000       0.68683840
   103  H          0.24040000       0.78230000       0.28610000
   104  H          0.75960000       0.21770000       0.71390000
   105  C          0.09523000       0.12003000       0.14191190
   106  C          0.90477000       0.87997000       0.85808810
   107  C          0.14674000       0.07893000       0.28052000
   108  C          0.85326000       0.92107000       0.71948000
   109  H          0.06970000       0.16070000       0.30280000
   110  H          0.93030000       0.83930000       0.69720000
   111  H          0.25450000       0.10800000       0.26800000
   112  H          0.74550000       0.89200000       0.73200000
   113  C          0.15774000       0.95266000       0.34062000
   114  C          0.84226000       0.04734000       0.65938000
   115  H          0.18290000       0.98380000       0.39240000
   116  H          0.81710000       0.01620000       0.60760000
   117  H          0.05130000       0.91990000       0.34900000
   118  H          0.94870000       0.08010000       0.65100000
   119  C          0.05684000       0.13193000      -0.00542000
   120  C          0.94316000       0.86807000       0.00542000
   121  H          0.09500000       0.22020000       0.99120000
   122  H          0.90500000       0.77980000       0.00880000
   123  C          0.04353000       0.05693000       0.06933190
   124  C          0.95647000       0.94307000       0.93066810
   125  C          0.01344000       0.07573000       0.92538000
   126  C          0.98656000       0.92427000       0.07462000
   127  H          0.02220000       0.12600000       0.87560000
   128  H          0.97780000       0.87400000       0.12440000
