data_HETPAL01
_symmetry_space_group_name_H-M    'P1'
_symmetry_Int_Tables_number       1
loop_
_symmetry_equiv_pos_site_id
_symmetry_equiv_pos_as_xyz
1 x,y,z
_cell_length_a                   7.6443
_cell_length_b                   5.6922
_cell_length_c                   27.1365
_cell_angle_alpha                90.0
_cell_angle_beta                 90.0
_cell_angle_gamma                90.0
loop_
_atom_site_label
_atom_site_type_symbol
_atom_site_fract_x
_atom_site_fract_y
_atom_site_fract_z
     1  C          0.24880000       0.19090000       0.23779000
     2  C          0.74880000       0.30910000       0.76221000
     3  C          0.75120000       0.69090000       0.26221000
     4  C          0.25120000       0.80910000       0.73779000
     5  C          0.29860000       0.40860000       0.25683000
     6  C          0.79860000       0.09140000       0.74317000
     7  C          0.70140000       0.90860000       0.24317000
     8  C          0.20140000       0.59140000       0.75683000
     9  C          0.25470000       0.46870000       0.30511000
    10  C          0.75470000       0.03130000       0.69489000
    11  C          0.74530000       0.96870000       0.19489000
    12  C          0.24530000       0.53130000       0.80511000
    13  C          0.16100000       0.31120000       0.33435000
    14  C          0.66100000       0.18880000       0.66565000
    15  C          0.83900000       0.81120000       0.16565000
    16  C          0.33900000       0.68880000       0.83435000
    17  C          0.11120000       0.09360000       0.31531000
    18  C          0.61120000       0.40640000       0.68469000
    19  C          0.88880000       0.59360000       0.18469000
    20  C          0.38880000       0.90640000       0.81531000
    21  C          0.15510000       0.03340000       0.26703000
    22  C          0.65510000       0.46660000       0.73297000
    23  C          0.84490000       0.53340000       0.23297000
    24  C          0.34490000       0.96660000       0.76703000
    25  C          0.29160000       0.11790000       0.18644000
    26  C          0.79160000       0.38210000       0.81356000
    27  C          0.70840000       0.61790000       0.31356000
    28  C          0.20840000       0.88210000       0.68644000
    29  C          0.11580000       0.38490000       0.38556000
    30  C          0.61580000       0.11510000       0.61444000
    31  C          0.88420000       0.88490000       0.11444000
    32  C          0.38420000       0.61510000       0.88556000
    33  C          0.40200000       0.24590000       0.10897000
    34  C          0.90200000       0.25410000       0.89103000
    35  C          0.59800000       0.74590000       0.39103000
    36  C          0.09800000       0.75410000       0.60897000
    37  C          0.49820000       0.45410000       0.09036000
    38  C         -0.00180000       0.04590000       0.90964000
    39  C          0.50180000       0.95410000       0.40964000
    40  C          0.00180000       0.54590000       0.59036000
    41  C          0.01240000       0.25630000       0.46355000
    42  C          0.51240000       0.24370000       0.53645000
    43  C         -0.01240000       0.75630000       0.03645000
    44  C          0.48760000       0.74370000       0.96355000
    45  C          0.97860000       0.02610000       0.48772000
    46  C          0.47860000       0.47390000       0.51228000
    47  C          0.02140000       0.52610000       0.01228000
    48  C          0.52140000       0.97390000       0.98772000
    49  O          0.35730000       0.29530000       0.16032000
    50  O          0.85730000       0.20470000       0.83968000
    51  O          0.64270000       0.79530000       0.33968000
    52  O          0.14270000       0.70470000       0.66032000
    53  O          0.26960000       0.92430000       0.17107000
    54  O          0.76960000       0.57570000       0.82893000
    55  O          0.73040000       0.42430000       0.32893000
    56  O          0.23040000       0.07570000       0.67107000
    57  O          0.05530000       0.20700000       0.41220000
    58  O          0.55530000       0.29300000       0.58780000
    59  O          0.94470000       0.70700000       0.08780000
    60  O          0.44470000       0.79300000       0.91220000
    61  O          0.13590000       0.58110000       0.40063000
    62  O          0.63590000       0.91890000       0.59937000
    63  O          0.86410000       0.08110000       0.09937000
    64  O          0.36410000       0.41890000       0.90063000
    65  O          0.39090000       0.65580000       0.08646000
    66  O          0.89090000       0.84420000       0.91354000
    67  O          0.60910000       0.15580000       0.41354000
    68  O          0.10910000       0.34420000       0.58646000
    69  O          0.13150000       0.88190000       0.48903000
    70  O          0.63150000       0.61810000       0.51097000
    71  O          0.86850000       0.38190000       0.01097000
    72  O          0.36850000       0.11810000       0.98903000
    73  H          0.37110000       0.53050000       0.23419000
    74  H          0.87110000       0.96950000       0.76581000
    75  H          0.62890000       0.03050000       0.26581000
    76  H          0.12890000       0.46950000       0.73419000
    77  H          0.29320000       0.63720000       0.31985000
    78  H          0.79320000       0.86280000       0.68015000
    79  H          0.70680000       0.13720000       0.18015000
    80  H          0.20680000       0.36280000       0.81985000
    81  H          0.03870000       0.97160000       0.33795000
    82  H          0.53870000       0.52840000       0.66205000
    83  H          0.96130000       0.47160000       0.16205000
    84  H          0.46130000       0.02840000       0.83795000
    85  H          0.11660000       0.86500000       0.25229000
    86  H          0.61660000       0.63500000       0.74771000
    87  H          0.88340000       0.36500000       0.24771000
    88  H          0.38340000       0.13500000       0.75229000
    89  H          0.48370000       0.09150000       0.10674000
    90  H         -0.01630000       0.40850000       0.89326000
    91  H          0.51630000       0.59150000       0.39326000
    92  H          0.01630000       0.90850000       0.60674000
    93  H          0.28460000       0.21850000       0.08761000
    94  H          0.78460000       0.28150000       0.91239000
    95  H          0.71540000       0.71850000       0.41239000
    96  H          0.21540000       0.78150000       0.58761000
    97  H          0.55030000       0.41350000       0.05451000
    98  H          0.05030000       0.08650000       0.94549000
    99  H          0.44970000       0.91350000       0.44549000
   100  H          0.94970000       0.58650000       0.55451000
   101  H          0.60440000       0.49230000       0.11555000
   102  H          0.10440000       0.00770000       0.88445000
   103  H          0.39560000      -0.00770000       0.38445000
   104  H          0.89560000       0.50770000       0.61555000
   105  H          0.12050000       0.34420000       0.48133000
   106  H          0.62050000       0.15580000       0.51867000
   107  H          0.87950000       0.84420000       0.01867000
   108  H          0.37950000       0.65580000       0.98133000
   109  H          0.89720000       0.36580000       0.46558000
   110  H          0.39720000       0.13420000       0.53442000
   111  H          0.10280000       0.86580000       0.03442000
   112  H          0.60280000       0.63420000       0.96558000
   113  H          0.87750000       0.93510000       0.46754000
   114  H          0.37750000       0.56490000       0.53246000
   115  H          0.12250000       0.43510000       0.03246000
   116  H          0.62250000       0.06490000       0.96754000
   117  H          0.93510000       0.05700000       0.52502000
   118  H          0.43510000       0.44300000       0.47498000
   119  H          0.06490000       0.55700000       0.97498000
   120  H          0.56490000       0.94300000       0.02502000
   121  H          0.33600000       0.71300000       0.12100000
   122  H          0.83600000       0.78700000       0.87900000
   123  H          0.66400000       0.21300000       0.37900000
   124  H          0.16400000       0.28700000       0.62100000
   125  H          0.15700000       0.78700000       0.46200000
   126  H          0.65700000       0.71300000       0.53800000
   127  H          0.84300000       0.28700000       0.03800000
   128  H          0.34300000       0.21300000       0.96200000
