data_HIBGUV01
_symmetry_space_group_name_H-M    'P1'
_symmetry_Int_Tables_number       1
loop_
_symmetry_equiv_pos_site_id
_symmetry_equiv_pos_as_xyz
1 x,y,z
_cell_length_a                   5.82665
_cell_length_b                   7.47236
_cell_length_c                   29.4332
_cell_angle_alpha                90.0
_cell_angle_beta                 90.5394
_cell_angle_gamma                90.0
loop_
_atom_site_label
_atom_site_type_symbol
_atom_site_fract_x
_atom_site_fract_y
_atom_site_fract_z
     1  Br         0.80677519       0.04092916       0.04790140
     2  Br         0.19322481       0.54092916       0.45209860
     3  Br         0.19322481       0.95907084       0.95209860
     4  Br         0.80677519       0.45907084       0.54790140
     5  S          0.88029400       0.03898300       0.23545490
     6  S          0.11970600       0.53898300       0.26454510
     7  S          0.11970600       0.96101700       0.76454510
     8  S          0.88029400       0.46101700       0.73545490
     9  O          0.53099150       0.93959890       0.44326300
    10  O          0.46900850       0.43959890       0.05673700
    11  O          0.46900850       0.06040110       0.55673700
    12  O          0.53099150       0.56040110       0.94326300
    13  N          0.47335150       0.90113870       0.25491300
    14  N          0.52664850       0.40113870       0.24508700
    15  N          0.52664850       0.09886130       0.74508700
    16  N          0.47335150       0.59886130       0.75491300
    17  C          0.62360170       0.94943890       0.22310300
    18  C          0.37639830       0.44943890       0.27689700
    19  C          0.37639830       0.05056110       0.77689700
    20  C          0.62360170       0.55056110       0.72310300
    21  H          0.33530000       0.86570000       0.24557000
    22  H          0.66470000       0.36570000       0.25443000
    23  H          0.66470000       0.13430000       0.75443000
    24  H          0.33530000       0.63430000       0.74557000
    25  C          0.54383160       0.92310880       0.17506300
    26  C          0.45616840       0.42310880       0.32493700
    27  C          0.45616840       0.07689120       0.82493700
    28  C          0.54383160       0.57689120       0.67506300
    29  C          0.68462170      -0.01698130       0.13982300
    30  C          0.31537830       0.48301870       0.36017700
    31  C          0.31537830       0.01698130       0.86017700
    32  C          0.68462170       0.51698130       0.63982300
    33  H          0.82740000       0.03900000       0.14650000
    34  H          0.17260000       0.53900000       0.35350000
    35  H          0.17260000       0.96100000       0.85350000
    36  H          0.82740000       0.46100000       0.64650000
    37  C          0.61337180       0.95978870       0.09522400
    38  C          0.38662820       0.45978870       0.40477600
    39  C          0.38662820       0.04021130       0.90477600
    40  C          0.61337180       0.54021130       0.59522400
    41  C          0.40549180       0.88144860       0.08364300
    42  C          0.59450820       0.38144860       0.41635700
    43  C          0.59450820       0.11855140       0.91635700
    44  C          0.40549180       0.61855140       0.58364300
    45  H          0.35940000       0.86830000       0.05280000
    46  H          0.64060000       0.36830000       0.44720000
    47  H          0.64060000       0.13170000       0.94720000
    48  H          0.35940000       0.63170000       0.55280000
    49  C          0.26697170       0.82285860       0.11876400
    50  C          0.73302830       0.32285860       0.38123600
    51  C          0.73302830       0.17714140       0.88123600
    52  C          0.26697170       0.67714140       0.61876400
    53  H          0.12330000       0.76880000       0.11180000
    54  H          0.87670000       0.26880000       0.38820000
    55  H          0.87670000       0.23120000       0.88820000
    56  H          0.12330000       0.73120000       0.61180000
    57  C          0.33451170       0.84189870       0.16377300
    58  C          0.66548830       0.34189870       0.33622700
    59  C          0.66548830       0.15810130       0.83622700
    60  C          0.33451170       0.65810130       0.66377300
    61  H          0.23770000       0.79940000       0.18720000
    62  H          0.76230000       0.29940000       0.31280000
    63  H          0.76230000       0.20060000       0.81280000
    64  H          0.23770000       0.70060000       0.68720000
    65  C          0.50036170       0.90775860       0.30298300
    66  C          0.49963830       0.40775860       0.19701700
    67  C          0.49963830       0.09224140       0.69701700
    68  C          0.50036170       0.59224140       0.80298300
    69  C          0.31609180       0.97313860       0.32820400
    70  C          0.68390820       0.47313860       0.17179600
    71  C          0.68390820       0.02686140       0.67179600
    72  C          0.31609180       0.52686140       0.82820400
    73  H          0.18070000       0.01340000       0.31310000
    74  H          0.81930000       0.51340000       0.18690000
    75  H          0.81930000      -0.01340000       0.68690000
    76  H          0.18070000       0.48660000       0.81310000
    77  C          0.33131180       0.97906860       0.37496400
    78  C          0.66868820       0.47906860       0.12503600
    79  C          0.66868820       0.02093140       0.62503600
    80  C          0.33131180       0.52093140       0.87496400
    81  H          0.20620000       0.02360000       0.39210000
    82  H          0.79380000       0.52360000       0.10790000
    83  H          0.79380000       0.97640000       0.60790000
    84  H          0.20620000       0.47640000       0.89210000
    85  C          0.53031170       0.91970870       0.39730300
    86  C          0.46968830       0.41970870       0.10269700
    87  C          0.46968830       0.08029130       0.60269700
    88  C          0.53031170       0.58029130       0.89730300
    89  C          0.71009170       0.84844870       0.37239300
    90  C          0.28990830       0.34844870       0.12760700
    91  C          0.28990830       0.15155130       0.62760700
    92  C          0.71009170       0.65155130       0.87239300
    93  H          0.84340000       0.80440000       0.38750000
    94  H          0.15660000       0.30440000       0.11250000
    95  H          0.15660000       0.19560000       0.61250000
    96  H          0.84340000       0.69560000       0.88750000
    97  C          0.69347170       0.84211870       0.32519300
    98  C          0.30652830       0.34211870       0.17480700
    99  C          0.30652830       0.15788130       0.67480700
   100  C          0.69347170       0.65788130       0.82519300
   101  H          0.81540000       0.79240000       0.30810000
   102  H          0.18460000       0.29240000       0.19190000
   103  H          0.18460000       0.20760000       0.69190000
   104  H          0.81540000       0.70760000       0.80810000
   105  C          0.72702000       0.87588000       0.46760400
   106  C          0.27298000       0.37588000       0.03239600
   107  C          0.27298000       0.12412000       0.53239600
   108  C          0.72702000       0.62412000       0.96760400
   109  H          0.74860000       0.74830000       0.46130000
   110  H          0.25140000       0.24830000       0.03870000
   111  H          0.25140000       0.25170000       0.53870000
   112  H          0.74860000       0.75170000       0.96130000
   113  H          0.70400000       0.89320000       0.50030000
   114  H          0.29600000       0.39320000      -0.00030000
   115  H          0.29600000       0.10680000       0.49970000
   116  H          0.70400000       0.60680000       0.00030000
   117  H          0.86310000       0.94250000       0.45800000
   118  H          0.13690000       0.44250000       0.04200000
   119  H          0.13690000       0.05750000       0.54200000
   120  H          0.86310000       0.55750000       0.95800000
