data_HIBGUV02
_symmetry_space_group_name_H-M    'P1'
_symmetry_Int_Tables_number       1
loop_
_symmetry_equiv_pos_site_id
_symmetry_equiv_pos_as_xyz
1 x,y,z
_cell_length_a                   12.87476
_cell_length_b                   28.130411
_cell_length_c                   7.48093
_cell_angle_alpha                90.0
_cell_angle_beta                 90.0
_cell_angle_gamma                90.0
loop_
_atom_site_label
_atom_site_type_symbol
_atom_site_fract_x
_atom_site_fract_y
_atom_site_fract_z
     1  Br         0.87229200       0.28651090       0.03454500
     2  Br         0.62770800       0.21348910       0.03454500
     3  Br         0.37229200       0.71348910       0.46545500
     4  Br         0.12770800       0.78651090       0.46545500
     5  Br         0.12770800       0.71348910       0.96545500
     6  Br         0.37229200       0.78651090       0.96545500
     7  Br         0.62770800       0.28651090       0.53454500
     8  Br         0.87229200       0.21348910       0.53454500
     9  S          0.91597400       0.47625719       0.79170300
    10  S          0.58402600       0.02374281       0.79170300
    11  S          0.41597400       0.52374281       0.70829700
    12  S          0.08402600       0.97625719       0.70829700
    13  S          0.08402600       0.52374281       0.20829700
    14  S          0.41597400       0.97625719       0.20829700
    15  S          0.58402600       0.47625719       0.29170300
    16  S          0.91597400       0.02374281       0.29170300
    17  O          0.72935140       0.69105500       0.78028000
    18  O          0.77064860       0.80894500       0.78028000
    19  O          0.22935140       0.30894500       0.71972000
    20  O          0.27064860       0.19105500       0.71972000
    21  O          0.27064860       0.30894500       0.21972000
    22  O          0.22935140       0.19105500       0.21972000
    23  O          0.77064860       0.69105500       0.28028000
    24  O          0.72935140       0.80894500       0.28028000
    25  N          0.79139130       0.50898600       0.04972000
    26  N          0.70860870       0.99101400       0.04972000
    27  N          0.29139130       0.49101400       0.45028000
    28  N          0.20860870       0.00898600       0.45028000
    29  N          0.20860870       0.49101400       0.95028000
    30  N          0.29139130       0.00898600       0.95028000
    31  N          0.70860870       0.50898600       0.54972000
    32  N          0.79139130       0.99101400       0.54972000
    33  C          0.85264140       0.47461700      -0.01293000
    34  C          0.64735860       0.02538300      -0.01293000
    35  C          0.35264140       0.52538300       0.51293000
    36  C          0.14735860       0.97461700       0.51293000
    37  C          0.14735860       0.52538300       0.01293000
    38  C          0.35264140       0.97461700       0.01293000
    39  C          0.64735860       0.47461700       0.48707000
    40  C          0.85264140       0.02538300       0.48707000
    41  H          0.75220000       0.50249000       0.13440000
    42  H          0.74780000      -0.00249000       0.13440000
    43  H          0.25220000       0.49751000       0.36560000
    44  H          0.24780000       0.00249000       0.36560000
    45  H          0.24780000       0.49751000       0.86560000
    46  H          0.25220000       0.00249000       0.86560000
    47  H          0.74780000       0.50249000       0.63440000
    48  H          0.75220000      -0.00249000       0.63440000
    49  C          0.86202140       0.43225700       0.10523000
    50  C          0.63797860       0.06774300       0.10523000
    51  C          0.36202140       0.56774300       0.39477000
    52  C          0.13797860       0.93225700       0.39477000
    53  C          0.13797860       0.56774300       0.89477000
    54  C          0.36202140       0.93225700       0.89477000
    55  C          0.63797860       0.43225700       0.60523000
    56  C          0.86202140       0.06774300       0.60523000
    57  C          0.86326150       0.38685700       0.02953000
    58  C          0.63673850       0.11314300       0.02953000
    59  C          0.36326150       0.61314300       0.47047000
    60  C          0.13673850       0.88685700       0.47047000
    61  C          0.13673850       0.61314300       0.97047000
    62  C          0.36326150       0.88685700       0.97047000
    63  C          0.63673850       0.38685700       0.52953000
    64  C          0.86326150       0.11314300       0.52953000
    65  H          0.85720000       0.38290000       0.90380000
    66  H          0.64280000       0.11710000       0.90380000
    67  H          0.35720000       0.61710000       0.59620000
    68  H          0.14280000       0.88290000       0.59620000
    69  H          0.14280000       0.61710000       0.09620000
    70  H          0.35720000       0.88290000       0.09620000
    71  H          0.64280000       0.38290000       0.40380000
    72  H          0.85720000       0.11710000       0.40380000
    73  C          0.87343170       0.34777800       0.13984000
    74  C          0.62656830       0.15222200       0.13984000
    75  C          0.37343170       0.65222200       0.36016000
    76  C          0.12656830       0.84777800       0.36016000
    77  C          0.12656830       0.65222200       0.86016000
    78  C          0.37343170       0.84777800       0.86016000
    79  C          0.62656830       0.34777800       0.63984000
    80  C          0.87343170       0.15222200       0.63984000
    81  C          0.88475180       0.35220800       0.32324000
    82  C          0.61524820       0.14779200       0.32324000
    83  C          0.38475180       0.64779200       0.17676000
    84  C          0.11524820       0.85220800       0.17676000
    85  C          0.11524820       0.64779200       0.67676000
    86  C          0.38475180       0.85220800       0.67676000
    87  C          0.61524820       0.35220800       0.82324000
    88  C          0.88475180       0.14779200       0.82324000
    89  H          0.89210000       0.32490000       0.39680000
    90  H          0.60790000       0.17510000       0.39680000
    91  H          0.39210000       0.67510000       0.10320000
    92  H          0.10790000       0.82490000       0.10320000
    93  H          0.10790000       0.67510000       0.60320000
    94  H          0.39210000       0.82490000       0.60320000
    95  H          0.60790000       0.32490000       0.89680000
    96  H          0.89210000       0.17510000       0.89680000
    97  C          0.88511170       0.39734800       0.39703000
    98  C          0.61488830       0.10265200       0.39703000
    99  C          0.38511170       0.60265200       0.10297000
   100  C          0.11488830       0.89734800       0.10297000
   101  C          0.11488830       0.60265200       0.60297000
   102  C          0.38511170       0.89734800       0.60297000
   103  C          0.61488830       0.39734800       0.89703000
   104  C          0.88511170       0.10265200       0.89703000
   105  H          0.89360000       0.40110000       0.52240000
   106  H          0.60640000       0.09890000       0.52240000
   107  H          0.39360000       0.59890000       0.97760000
   108  H          0.10640000       0.90110000       0.97760000
   109  H          0.10640000       0.59890000       0.47760000
   110  H          0.39360000       0.90110000       0.47760000
   111  H          0.60640000       0.40110000       0.02240000
   112  H          0.89360000       0.09890000       0.02240000
   113  C          0.87313150       0.43723700       0.28943000
   114  C          0.62686850       0.06276300       0.28943000
   115  C          0.37313150       0.56276300       0.21057000
   116  C          0.12686850       0.93723700       0.21057000
   117  C          0.12686850       0.56276300       0.71057000
   118  C          0.37313150       0.93723700       0.71057000
   119  C          0.62686850       0.43723700       0.78943000
   120  C          0.87313150       0.06276300       0.78943000
   121  H          0.87250000       0.46800000       0.34160000
   122  H          0.62750000       0.03200000       0.34160000
   123  H          0.37250000       0.53200000       0.15840000
   124  H          0.12750000       0.96800000       0.15840000
   125  H          0.12750000       0.53200000       0.65840000
   126  H          0.37250000       0.96800000       0.65840000
   127  H          0.62750000       0.46800000       0.84160000
   128  H          0.87250000       0.03200000       0.84160000
   129  C          0.77441150       0.55500700       0.97347000
   130  C          0.72558850       0.94499300       0.97347000
   131  C          0.27441150       0.44499300       0.52653000
   132  C          0.22558850       0.05500700       0.52653000
   133  C          0.22558850       0.44499300       0.02653000
   134  C          0.27441150       0.05500700       0.02653000
   135  C          0.72558850       0.55500700       0.47347000
   136  C          0.77441150       0.94499300       0.47347000
   137  C          0.67389160       0.57111700       0.95267000
   138  C          0.82610840       0.92888300       0.95267000
   139  C          0.17389160       0.42888300       0.54733000
   140  C          0.32610840       0.07111700       0.54733000
   141  C          0.32610840       0.42888300       0.04733000
   142  C          0.17389160       0.07111700       0.04733000
   143  C          0.82610840       0.57111700       0.45267000
   144  C          0.67389160       0.92888300       0.45267000
   145  H          0.61720000       0.55100000      -0.01690000
   146  H          0.88280000       0.94900000      -0.01690000
   147  H          0.11720000       0.44900000       0.51690000
   148  H          0.38280000       0.05100000       0.51690000
   149  H          0.38280000       0.44900000       0.01690000
   150  H          0.11720000       0.05100000       0.01690000
   151  H          0.88280000       0.55100000       0.48310000
   152  H          0.61720000       0.94900000       0.48310000
   153  C          0.65523170       0.61658800       0.88747000
   154  C          0.84476830       0.88341200       0.88747000
   155  C          0.15523170       0.38341200       0.61253000
   156  C          0.34476830       0.11658800       0.61253000
   157  C          0.34476830       0.38341200       0.11253000
   158  C          0.15523170       0.11658800       0.11253000
   159  C          0.84476830       0.61658800       0.38747000
   160  C          0.65523170       0.88341200       0.38747000
   161  H          0.58600000       0.62760000       0.87250000
   162  H          0.91400000       0.87240000       0.87250000
   163  H          0.08600000       0.37240000       0.62750000
   164  H          0.41400000       0.12760000       0.62750000
   165  H          0.41400000       0.37240000       0.12750000
   166  H          0.08600000       0.12760000       0.12750000
   167  H          0.91400000       0.62760000       0.37250000
   168  H          0.58600000       0.87240000       0.37250000
   169  C          0.73800180       0.64579700       0.84447000
   170  C          0.76199820       0.85420300       0.84447000
   171  C          0.23800180       0.35420300       0.65553000
   172  C          0.26199820       0.14579700       0.65553000
   173  C          0.26199820       0.35420300       0.15553000
   174  C          0.23800180       0.14579700       0.15553000
   175  C          0.76199820       0.64579700       0.34447000
   176  C          0.73800180       0.85420300       0.34447000
   177  C          0.83900180       0.62950800       0.86737000
   178  C          0.66099820       0.87049200       0.86737000
   179  C          0.33900180       0.37049200       0.63263000
   180  C          0.16099820       0.12950800       0.63263000
   181  C          0.16099820       0.37049200       0.13263000
   182  C          0.33900180       0.12950800       0.13263000
   183  C          0.66099820       0.62950800       0.36737000
   184  C          0.83900180       0.87049200       0.36737000
   185  H          0.89580000       0.64960000       0.83830000
   186  H          0.60420000       0.85040000       0.83830000
   187  H          0.39580000       0.35040000       0.66170000
   188  H          0.10420000       0.14960000       0.66170000
   189  H          0.10420000       0.35040000       0.16170000
   190  H          0.39580000       0.14960000       0.16170000
   191  H          0.60420000       0.64960000       0.33830000
   192  H          0.89580000       0.85040000       0.33830000
   193  C          0.85731160       0.58449800       0.93177000
   194  C          0.64268840       0.91550200       0.93177000
   195  C          0.35731160       0.41550200       0.56823000
   196  C          0.14268840       0.08449800       0.56823000
   197  C          0.14268840       0.41550200       0.06823000
   198  C          0.35731160       0.08449800       0.06823000
   199  C          0.64268840       0.58449800       0.43177000
   200  C          0.85731160       0.91550200       0.43177000
   201  H          0.92660000       0.57360000       0.94780000
   202  H          0.57340000       0.92640000       0.94780000
   203  H          0.42660000       0.42640000       0.55220000
   204  H          0.07340000       0.07360000       0.55220000
   205  H          0.07340000       0.42640000       0.05220000
   206  H          0.42660000       0.07360000       0.05220000
   207  H          0.57340000       0.57360000       0.44780000
   208  H          0.92660000       0.92640000       0.44780000
   209  C          0.62772000       0.70998900       0.76215000
   210  C          0.87228000       0.79001100       0.76215000
   211  C          0.12772000       0.29001100       0.73785000
   212  C          0.37228000       0.20998900       0.73785000
   213  C          0.37228000       0.29001100       0.23785000
   214  C          0.12772000       0.20998900       0.23785000
   215  C          0.87228000       0.70998900       0.26215000
   216  C          0.62772000       0.79001100       0.26215000
   217  H          0.58770000       0.69030000       0.67870000
   218  H          0.91230000       0.80970000       0.67870000
   219  H          0.08770000       0.30970000       0.82130000
   220  H          0.41230000       0.19030000       0.82130000
   221  H          0.41230000       0.30970000       0.32130000
   222  H          0.08770000       0.19030000       0.32130000
   223  H          0.91230000       0.69030000       0.17870000
   224  H          0.58770000       0.80970000       0.17870000
   225  H          0.63190000       0.74250000       0.71620000
   226  H          0.86810000       0.75750000       0.71620000
   227  H          0.13190000       0.25750000       0.78380000
   228  H          0.36810000       0.24250000       0.78380000
   229  H          0.36810000       0.25750000       0.28380000
   230  H          0.13190000       0.24250000       0.28380000
   231  H          0.86810000       0.74250000       0.21620000
   232  H          0.63190000       0.75750000       0.21620000
   233  H          0.59330000       0.71020000       0.87900000
   234  H          0.90670000       0.78980000       0.87900000
   235  H          0.09330000       0.28980000       0.62100000
   236  H          0.40670000       0.21020000       0.62100000
   237  H          0.40670000       0.28980000       0.12100000
   238  H          0.09330000       0.21020000       0.12100000
   239  H          0.90670000       0.71020000       0.37900000
   240  H          0.59330000       0.78980000       0.37900000
