data_HIBGUV
_symmetry_space_group_name_H-M    'P1'
_symmetry_Int_Tables_number       1
loop_
_symmetry_equiv_pos_site_id
_symmetry_equiv_pos_as_xyz
1 x,y,z
_cell_length_a                   9.38273
_cell_length_b                   14.53685
_cell_length_c                   19.49677
_cell_angle_alpha                90.0
_cell_angle_beta                 90.0
_cell_angle_gamma                90.0
loop_
_atom_site_label
_atom_site_type_symbol
_atom_site_fract_x
_atom_site_fract_y
_atom_site_fract_z
     1  Br         0.83888300       0.27358200       0.46708213
     2  Br         0.16111700       0.72641800       0.96708213
     3  Br         0.66111700       0.27358200       0.96708213
     4  Br         0.33888300       0.72641800       0.46708213
     5  S          0.16033700       0.39727500       0.43231400
     6  S          0.83966300       0.60272500       0.93231400
     7  S          0.33966300       0.39727500       0.93231400
     8  S          0.66033700       0.60272500       0.43231400
     9  O          0.08912000       0.66872130       0.16673110
    10  O          0.91088000       0.33127870       0.66673110
    11  O          0.41088000       0.66872130       0.66673110
    12  O          0.58912000       0.33127870       0.16673110
    13  N          0.38292000       0.48073150       0.37116130
    14  N          0.61708000       0.51926850       0.87116130
    15  N          0.11708000       0.48073150       0.87116130
    16  N          0.88292000       0.51926850       0.37116130
    17  C          0.33063000       0.42815170       0.42167140
    18  C          0.66937000       0.57184830       0.92167140
    19  C          0.16937000       0.42815170       0.92167140
    20  C          0.83063000       0.57184830       0.42167140
    21  H          0.47430000       0.50220000       0.37991700
    22  H          0.52570000       0.49780000       0.87991700
    23  H          0.02570000       0.50220000       0.87991700
    24  H          0.97430000       0.49780000       0.37991700
    25  C          0.43823000       0.39416160       0.47152150
    26  C          0.56177000       0.60583840       0.97152150
    27  C          0.06177000       0.39416160       0.97152150
    28  C          0.93823000       0.60583840       0.47152150
    29  C          0.56923000       0.36025160       0.44882150
    30  C          0.43077000       0.63974840       0.94882150
    31  C          0.93077000       0.36025160       0.94882150
    32  C          0.06923000       0.63974840       0.44882150
    33  H          0.59370000       0.36170000       0.40150000
    34  H          0.40630000       0.63830000       0.90150000
    35  H          0.90630000       0.36170000       0.90150000
    36  H          0.09370000       0.63830000       0.40150000
    37  C          0.66273000       0.32437170       0.49693150
    38  C          0.33727000       0.67562830      -0.00306850
    39  C          0.83727000       0.32437170      -0.00306850
    40  C          0.16273000       0.67562830       0.49693150
    41  C          0.63163000       0.32156190       0.56580160
    42  C          0.36837000       0.67843810       0.06580160
    43  C          0.86837000       0.32156190       0.06580160
    44  C          0.13163000       0.67843810       0.56580160
    45  H          0.69690000       0.29560000       0.59760000
    46  H          0.30310000       0.70440000       0.09760000
    47  H          0.80310000       0.29560000       0.09760000
    48  H          0.19690000       0.70440000       0.59760000
    49  C          0.50273000       0.35752000       0.58783160
    50  C          0.49727000       0.64248000       0.08783160
    51  C         -0.00273000       0.35752000       0.08783160
    52  C          0.00273000       0.64248000       0.58783160
    53  H          0.48080000       0.35860000       0.63540000
    54  H          0.51920000       0.64140000       0.13540000
    55  H          0.01920000       0.35860000       0.13540000
    56  H          0.98080000       0.64140000       0.63540000
    57  C          0.40613000       0.39176190       0.54101160
    58  C          0.59387000       0.60823810       0.04101160
    59  C          0.09387000       0.39176190       0.04101160
    60  C          0.90613000       0.60823810       0.54101160
    61  H          0.31640000       0.41400000       0.55650000
    62  H          0.68360000       0.58600000       0.05650000
    63  H          0.18360000       0.41400000       0.05650000
    64  H          0.81640000       0.58600000       0.55650000
    65  C          0.30613000       0.52409170       0.31725140
    66  C          0.69387000       0.47590830       0.81725140
    67  C          0.19387000       0.52409170       0.81725140
    68  C          0.80613000       0.47590830       0.31725140
    69  C          0.20083000       0.47926180       0.28021150
    70  C          0.79917000       0.52073820       0.78021150
    71  C          0.29917000       0.47926180       0.78021150
    72  C          0.70083000       0.52073820       0.28021150
    73  H          0.17970000       0.41670000       0.28980000
    74  H          0.82030000       0.58330000       0.78980000
    75  H          0.32030000       0.41670000       0.78980000
    76  H          0.67970000       0.58330000       0.28980000
    77  C          0.12633000       0.52507180       0.22937160
    78  C          0.87367000       0.47492820       0.72937160
    79  C          0.37367000       0.52507180       0.72937160
    80  C          0.62633000       0.47492820       0.22937160
    81  H          0.05310000       0.49420000       0.20480000
    82  H          0.94690000       0.50580000       0.70480000
    83  H          0.44690000       0.49420000       0.70480000
    84  H          0.55310000       0.50580000       0.20480000
    85  C          0.15823000       0.61602170       0.21421150
    86  C          0.84177000       0.38397830       0.71421150
    87  C          0.34177000       0.61602170       0.71421150
    88  C          0.65823000       0.38397830       0.21421150
    89  C          0.26893000       0.65978170       0.24920150
    90  C          0.73107000       0.34021830       0.74920150
    91  C          0.23107000       0.65978170       0.74920150
    92  C          0.76893000       0.34021830       0.24920150
    93  H          0.29350000       0.72130000       0.23800000
    94  H          0.70650000       0.27870000       0.73800000
    95  H          0.20650000       0.72130000       0.73800000
    96  H          0.79350000       0.27870000       0.23800000
    97  C          0.34243000       0.61420170       0.29983150
    98  C          0.65757000       0.38579830       0.79983150
    99  C          0.15757000       0.61420170       0.79983150
   100  C          0.84243000       0.38579830       0.29983150
   101  H          0.41820000       0.64420000       0.32310000
   102  H          0.58180000       0.35580000       0.82310000
   103  H          0.08180000       0.64420000       0.82310000
   104  H          0.91820000       0.35580000       0.32310000
   105  C          0.97147000       0.62842000       0.13122180
   106  C          0.02853000       0.37158000       0.63122180
   107  C          0.52853000       0.62842000       0.63122180
   108  C          0.47147000       0.37158000       0.13122180
   109  H          0.00530000       0.57670000       0.10340000
   110  H         -0.00530000       0.42330000       0.60340000
   111  H          0.49470000       0.57670000       0.60340000
   112  H          0.50530000       0.42330000       0.10340000
   113  H          0.92730000       0.67450000       0.10140000
   114  H          0.07270000       0.32550000       0.60140000
   115  H          0.57270000       0.67450000       0.60140000
   116  H          0.42730000       0.32550000       0.10140000
   117  H          0.90120000       0.60620000       0.16450000
   118  H          0.09880000       0.39380000       0.66450000
   119  H          0.59880000       0.60620000       0.66450000
   120  H          0.40120000       0.39380000       0.16450000
   121  Br         0.15846300       0.21949200       0.22755213
   122  Br         0.84153700       0.78050800       0.72755213
   123  Br         0.34153700       0.21949200       0.72755213
   124  Br         0.65846300       0.78050800       0.22755213
   125  S          0.84576700       0.09944400       0.18703400
   126  S          0.15423300       0.90055600       0.68703400
   127  S          0.65423300       0.09944400       0.68703400
   128  S          0.34576700       0.90055600       0.18703400
   129  O          0.91194190       0.85211880       0.91586890
   130  O          0.08805810       0.14788120       0.41586890
   131  O          0.58805810       0.85211880       0.41586890
   132  O          0.41194190       0.14788120       0.91586890
   133  N          0.61602000       0.02560150       0.12735120
   134  N          0.38398000       0.97439850       0.62735120
   135  N          0.88398000       0.02560150       0.62735120
   136  N          0.11602000       0.97439850       0.12735120
   137  H          0.53830000       0.00520000       0.13161600
   138  H          0.46170000      -0.00520000       0.63161600
   139  H          0.96170000       0.00520000       0.63161600
   140  H          0.03830000      -0.00520000       0.13161600
   141  C          0.67242000       0.07666170       0.17739140
   142  C          0.32758000       0.92333830       0.67739140
   143  C          0.82758000       0.07666170       0.67739140
   144  C          0.17242000       0.92333830       0.17739140
   145  C          0.56933000       0.11475150       0.22816150
   146  C          0.43067000       0.88524850       0.72816150
   147  C          0.93067000       0.11475150       0.72816150
   148  C          0.06933000       0.88524850       0.22816150
   149  C          0.43193000       0.14239160       0.20729150
   150  C          0.56807000       0.85760840       0.70729150
   151  C          0.06807000       0.14239160       0.70729150
   152  C          0.93193000       0.85760840       0.20729150
   153  H          0.40160000       0.13460000       0.16110000
   154  H          0.59840000       0.86540000       0.66110000
   155  H          0.09840000       0.13460000       0.66110000
   156  H          0.90160000       0.86540000       0.16110000
   157  C          0.34282000       0.18081170       0.25536150
   158  C          0.65718000       0.81918830       0.75536150
   159  C          0.15718000       0.18081170       0.75536150
   160  C          0.84282000       0.81918830       0.25536150
   161  C          0.38193000       0.19419190       0.32264150
   162  C          0.61807000       0.80580810       0.82264150
   163  C          0.11807000       0.19419190       0.82264150
   164  C          0.88193000       0.80580810       0.32264150
   165  H          0.31810000       0.22200000       0.35430000
   166  H          0.68190000       0.77800000       0.85430000
   167  H          0.18190000       0.22200000       0.85430000
   168  H          0.81810000       0.77800000       0.35430000
   169  C          0.51673000       0.16619190       0.34323150
   170  C          0.48327000       0.83380810       0.84323150
   171  C          0.98327000       0.16619190       0.84323150
   172  C          0.01673000       0.83380810       0.34323150
   173  H          0.54510000       0.17340000       0.38970000
   174  H          0.45490000       0.82660000       0.88970000
   175  H          0.95490000       0.17340000       0.88970000
   176  H          0.04510000       0.82660000       0.38970000
   177  C          0.60963000       0.12775170       0.29620150
   178  C          0.39037000       0.87224830       0.79620150
   179  C          0.89037000       0.12775170       0.79620150
   180  C          0.10963000       0.87224830       0.29620150
   181  H          0.70240000       0.11000000       0.31050000
   182  H          0.29760000       0.89000000       0.81050000
   183  H          0.79760000       0.11000000       0.81050000
   184  H          0.20240000       0.89000000       0.31050000
   185  C          0.69213000       0.98410830       0.07211140
   186  C          0.30787000       0.01589170       0.57211140
   187  C          0.80787000       0.98410830       0.57211140
   188  C          0.19213000       0.01589170       0.07211140
   189  C          0.78573000       0.03523170       0.03229140
   190  C          0.21427000       0.96476830       0.53229140
   191  C          0.71427000       0.03523170       0.53229140
   192  C          0.28573000       0.96476830       0.03229140
   193  H          0.79840000       0.09900000       0.04120000
   194  H          0.20160000       0.90100000       0.54120000
   195  H          0.70160000       0.09900000       0.54120000
   196  H          0.29840000       0.90100000       0.04120000
   197  C          0.86143000      -0.00694170       0.97903850
   198  C          0.13857000       0.00694170       0.47903850
   199  C          0.63857000      -0.00694170       0.47903850
   200  C          0.36143000       0.00694170       0.97903850
   201  H          0.92640000       0.02790000       0.95210000
   202  H          0.07360000       0.97210000       0.45210000
   203  H          0.57360000       0.02790000       0.45210000
   204  H          0.42640000       0.97210000       0.95210000
   205  C          0.84123000       0.90009830       0.96564860
   206  C          0.15877000       0.09990170       0.46564860
   207  C          0.65877000       0.90009830       0.46564860
   208  C          0.34123000       0.09990170       0.96564860
   209  C          0.74233000       0.84988830       0.00439150
   210  C          0.25767000       0.15011170       0.50439150
   211  C          0.75767000       0.84988830       0.50439150
   212  C          0.24233000       0.15011170       0.00439150
   213  H          0.72560000       0.78680000      -0.00560000
   214  H          0.27440000       0.21320000       0.49440000
   215  H          0.77440000       0.78680000       0.49440000
   216  H          0.22560000       0.21320000      -0.00560000
   217  C          0.66983000       0.89207830       0.05665140
   218  C          0.33017000       0.10792170       0.55665140
   219  C          0.83017000       0.89207830       0.55665140
   220  C          0.16983000       0.10792170       0.05665140
   221  H          0.60290000       0.85770000       0.08280000
   222  H          0.39710000       0.14230000       0.58280000
   223  H          0.89710000       0.85770000       0.58280000
   224  H          0.10290000       0.14230000       0.08280000
   225  C          0.00723000       0.90298000       0.87305830
   226  C         -0.00723000       0.09702000       0.37305830
   227  C          0.49277000       0.90298000       0.37305830
   228  C          0.50723000       0.09702000       0.87305830
   229  H          0.95370000       0.95000000       0.84790000
   230  H          0.04630000       0.05000000       0.34790000
   231  H          0.54630000       0.95000000       0.34790000
   232  H          0.45370000       0.05000000       0.84790000
   233  H          0.05320000       0.86110000       0.84040000
   234  H          0.94680000       0.13890000       0.34040000
   235  H          0.44680000       0.86110000       0.34040000
   236  H          0.55320000       0.13890000       0.84040000
   237  H          0.08000000       0.93270000       0.90150000
   238  H          0.92000000       0.06730000       0.40150000
   239  H          0.42000000       0.93270000       0.40150000
   240  H          0.58000000       0.06730000       0.90150000
