data_HIFZIJ01
_symmetry_space_group_name_H-M    'P1'
_symmetry_Int_Tables_number       1
loop_
_symmetry_equiv_pos_site_id
_symmetry_equiv_pos_as_xyz
1 x,y,z
_cell_length_a                   3.82043
_cell_length_b                   10.53178
_cell_length_c                   32.7153
_cell_angle_alpha                90.0
_cell_angle_beta                 90.0
_cell_angle_gamma                90.0
loop_
_atom_site_label
_atom_site_type_symbol
_atom_site_fract_x
_atom_site_fract_y
_atom_site_fract_z
     1  O          0.46546000       0.58972000       0.53714600
     2  O          0.03454000       0.41028000       0.03714600
     3  O          0.53454000       0.08972000       0.96285400
     4  O         -0.03454000       0.91028000       0.46285400
     5  O          0.03818000       0.27092000       0.16136700
     6  O          0.46182000       0.72908000       0.66136700
     7  O          0.96182000       0.77092000       0.33863300
     8  O          0.53818000       0.22908000       0.83863300
     9  N          0.50309000       0.16343000       0.36685800
    10  N         -0.00309000       0.83657000       0.86685800
    11  N          0.49691000       0.66343000       0.13314200
    12  N          0.00309000       0.33657000       0.63314200
    13  C          0.63201000       0.52033000       0.56890900
    14  C          0.86799000       0.47967000       0.06890900
    15  C          0.36799000       0.02033000       0.93109100
    16  C          0.13201000       0.97967000       0.43109100
    17  H          0.86796000       0.49591300       0.56014900
    18  H          0.63204000       0.50408700       0.06014900
    19  H          0.13204000      -0.00408700       0.93985100
    20  H          0.36796000       0.00408700       0.43985100
    21  H          0.49556500       0.44380600       0.57499400
    22  H          0.00443500       0.55619400       0.07499400
    23  H          0.50443500       0.94380600       0.92500600
    24  H         -0.00443500       0.05619400       0.42500600
    25  H          0.64743400       0.57329300       0.59345300
    26  H          0.85256600       0.42670700       0.09345300
    27  H          0.35256600       0.07329300       0.90654700
    28  H          0.14743400       0.92670700       0.40654700
    29  C          0.45149000       0.53553000       0.49927900
    30  C          0.04851000       0.46447000      -0.00072100
    31  C          0.54851000       0.03553000       0.00072100
    32  C          0.95149000       0.96447000       0.50072100
    33  C          0.56408000       0.41533000       0.49012800
    34  C          0.93592000       0.58467000       0.99012800
    35  C          0.43592000       0.91533000       0.00987200
    36  C          0.06408000       0.08467000       0.50987200
    37  H          0.65903600       0.36231300       0.51082700
    38  H          0.84096400       0.63768700       0.01082700
    39  H          0.34096400       0.86231300       0.98917300
    40  H          0.15903600       0.13768700       0.48917300
    41  C          0.53768000       0.37233000       0.45036900
    42  C          0.96232000       0.62767000       0.95036900
    43  C          0.46232000       0.87233000       0.04963100
    44  C          0.03768000       0.12767000       0.54963100
    45  H          0.61647500       0.28909600       0.44399600
    46  H          0.88352500       0.71090400       0.94399600
    47  H          0.38352500       0.78909600       0.05600400
    48  H          0.11647500       0.21090400       0.55600400
    49  C          0.39948000       0.44713000       0.41948900
    50  C          0.10052000       0.55287000       0.91948900
    51  C          0.60052000       0.94713000       0.08051100
    52  C          0.89948000       0.05287000       0.58051100
    53  C          0.27878000       0.56773000       0.42998900
    54  C          0.22122000       0.43227000       0.92998900
    55  C          0.72122000       0.06773000       0.07001100
    56  C          0.77878000       0.93227000       0.57001100
    57  H          0.17652500       0.62020500       0.40960700
    58  H          0.32347500       0.37979500       0.90960700
    59  H          0.82347500       0.12020500       0.09039300
    60  H          0.67652500       0.87979500       0.59039300
    61  C          0.30539000       0.61133000       0.46921900
    62  C          0.19461000       0.38867000       0.96921900
    63  C          0.69461000       0.11133000       0.03078100
    64  C          0.80539000       0.88867000       0.53078100
    65  H          0.22320400       0.69386200       0.47586200
    66  H          0.27679600       0.30613800       0.97586200
    67  H          0.77679600       0.19386200       0.02413800
    68  H          0.72320400       0.80613800       0.52413800
    69  C          0.37988000       0.40253000       0.37708900
    70  C          0.12012000       0.59747000       0.87708900
    71  C          0.62012000       0.90253000       0.12291100
    72  C          0.87988000       0.09747000       0.62291100
    73  C          0.44189000       0.26893000       0.37076900
    74  C          0.05811000       0.73107000       0.87076900
    75  C          0.55811000       0.76893000       0.12923100
    76  C          0.94189000       0.23107000       0.62923100
    77  C          0.33068000       0.47713000       0.34445900
    78  C          0.16932000       0.52287000       0.84445900
    79  C          0.66932000       0.97713000       0.15554100
    80  C          0.83068000       0.02287000       0.65554100
    81  H          0.31648100       0.56552000       0.35002300
    82  H          0.18351900       0.43448000       0.85002300
    83  H          0.68351900       0.06552000       0.14997700
    84  H          0.81648100       0.93448000       0.64997700
    85  C          0.29588000       0.44183000       0.30160900
    86  C          0.20412000       0.55817000       0.80160900
    87  C          0.70412000       0.94183000       0.19839100
    88  C          0.79588000       0.05817000       0.69839100
    89  C          0.13578000       0.33033000       0.28844900
    90  C          0.36422000       0.66967000       0.78844900
    91  C          0.86422000       0.83033000       0.21155100
    92  C          0.63578000       0.16967000       0.71155100
    93  H          0.04911200       0.27128400       0.30793200
    94  H          0.45088800       0.72871600       0.80793200
    95  H          0.95088800       0.77128400       0.19206800
    96  H          0.54911200       0.22871600       0.69206800
    97  C          0.10268000       0.30533000       0.24767900
    98  C          0.39732000       0.69467000       0.74767900
    99  C          0.89732000       0.80533000       0.25232100
   100  C          0.60268000       0.19467000       0.75232100
   101  H         -0.00861400       0.22916300       0.23908800
   102  H          0.50861400       0.77083700       0.73908800
   103  H          0.00861400       0.72916300       0.26091200
   104  H          0.49138600       0.27083700       0.76091200
   105  C          0.22868000       0.38933000       0.21868900
   106  C          0.27132000       0.61067000       0.71868900
   107  C          0.77132000       0.88933000       0.28131100
   108  C          0.72868000       0.11067000       0.78131100
   109  C          0.38958000       0.50073000       0.23123900
   110  C          0.11042000       0.49927000       0.73123900
   111  C          0.61042000       0.00073000       0.26876100
   112  C          0.88958000      -0.00073000       0.76876100
   113  H          0.47938500       0.55874300       0.21163900
   114  H          0.02061500       0.44125700       0.71163900
   115  H          0.52061500       0.05874300       0.28836100
   116  H         -0.02061500       0.94125700       0.78836100
   117  C          0.41768000       0.52633000       0.27236900
   118  C          0.08232000       0.47367000       0.77236900
   119  C          0.58232000       0.02633000       0.22763100
   120  C          0.91768000       0.97367000       0.72763100
   121  H          0.52279300       0.60361300       0.28091100
   122  H         -0.02279300       0.39638700       0.78091100
   123  H          0.47720700       0.10361300       0.21908900
   124  H          0.02279300       0.89638700       0.71908900
   125  C          0.18631000       0.36293000       0.17478100
   126  C          0.31369000       0.63707000       0.67478100
   127  C          0.81369000       0.86293000       0.32521900
   128  C          0.68631000       0.13707000       0.82521900
   129  H          0.28168100       0.42193400       0.15587400
   130  H          0.21831900       0.57806600       0.65587400
   131  H          0.71831900       0.92193400       0.34412600
   132  H          0.78168100       0.07806600       0.84412600
