data_HIFZIJ02
_symmetry_space_group_name_H-M    'P1'
_symmetry_Int_Tables_number       1
loop_
_symmetry_equiv_pos_site_id
_symmetry_equiv_pos_as_xyz
1 x,y,z
_cell_length_a                   4.73605
_cell_length_b                   9.81821
_cell_length_c                   28.3952
_cell_angle_alpha                90.0
_cell_angle_beta                 90.9509
_cell_angle_gamma                90.0
loop_
_atom_site_label
_atom_site_type_symbol
_atom_site_fract_x
_atom_site_fract_y
_atom_site_fract_z
     1  O          0.71106000       0.89412000       0.40348600
     2  O          0.28894000       0.39412000       0.09651400
     3  O          0.28894000       0.10588000       0.59651400
     4  O          0.71106000       0.60588000       0.90348600
     5  O          0.59134000       0.03942000       0.26149700
     6  O          0.40866000       0.53942000       0.23850300
     7  O          0.40866000       0.96058000       0.73850300
     8  O          0.59134000       0.46058000       0.76149700
     9  N          0.51636000       0.30463000       0.46020800
    10  N          0.48364000       0.80463000       0.03979200
    11  N          0.48364000       0.69537000       0.53979200
    12  N          0.51636000       0.19537000       0.96020800
    13  C          0.61183000       0.93143000       0.44830100
    14  C          0.38817000       0.43143000       0.05169900
    15  C          0.38817000       0.06857000       0.55169900
    16  C          0.61183000       0.56857000       0.94830100
    17  H          0.49011000       0.01172000       0.44525400
    18  H          0.50989000       0.51172000       0.05474600
    19  H          0.50989000      -0.01172000       0.55474600
    20  H          0.49011000       0.48828000       0.94525400
    21  H          0.77284500       0.95260100       0.46917300
    22  H          0.22715500       0.45260100       0.03082700
    23  H          0.22715500       0.04739900       0.53082700
    24  H          0.77284500       0.54739900       0.96917300
    25  H          0.50406700       0.85580800       0.46156200
    26  H          0.49593300       0.35580800       0.03843800
    27  H          0.49593300       0.14419200       0.53843800
    28  H          0.50406700       0.64419200       0.96156200
    29  C          0.88994000       0.78403000       0.40214900
    30  C          0.11006000       0.28403000       0.09785100
    31  C          0.11006000       0.21597000       0.59785100
    32  C          0.88994000       0.71597000       0.90214900
    33  C          0.96414000       0.70273000       0.43990900
    34  C          0.03586000       0.20273000       0.06009100
    35  C          0.03586000       0.29727000       0.56009100
    36  C          0.96414000       0.79727000       0.93990900
    37  H          0.88608600       0.71901900       0.46997700
    38  H          0.11391400       0.21901900       0.03002300
    39  H          0.11391400       0.28098100       0.53002300
    40  H          0.88608600       0.78098100       0.96997700
    41  C          0.15266000       0.59743000       0.43372900
    42  C          0.84734000       0.09743000       0.06627100
    43  C          0.84734000       0.40257000       0.56627100
    44  C          0.15266000       0.90257000       0.93372900
    45  H          0.20206400       0.54175700       0.45994500
    46  H          0.79793600       0.04175700       0.04005500
    47  H          0.79793600       0.45824300       0.54005500
    48  H          0.20206400       0.95824300       0.95994500
    49  C          0.27275000       0.57013000       0.39042800
    50  C          0.72725000       0.07013000       0.10957200
    51  C          0.72725000       0.42987000       0.60957200
    52  C          0.27275000       0.92987000       0.89042800
    53  C          0.18846000       0.65293000       0.35239900
    54  C          0.81154000       0.15293000       0.14760100
    55  C          0.81154000       0.34707000       0.64760100
    56  C          0.18846000       0.84707000       0.85239900
    57  H          0.26170700       0.63583500       0.32200800
    58  H          0.73829300       0.13583500       0.17799200
    59  H          0.73829300       0.36416500       0.67799200
    60  H          0.26170700       0.86416500       0.82200800
    61  C          0.00356000       0.75703000       0.35841900
    62  C         -0.00356000       0.25703000       0.14158100
    63  C         -0.00356000       0.24297000       0.64158100
    64  C          0.00356000       0.74297000       0.85841900
    65  H          0.95115600       0.81223500       0.33222200
    66  H          0.04884400       0.31223500       0.16777800
    67  H          0.04884400       0.18776500       0.66777800
    68  H          0.95115600       0.68776500       0.83222200
    69  C          0.47596000       0.45723000       0.38587900
    70  C          0.52404000       0.95723000       0.11412100
    71  C          0.52404000       0.54277000       0.61412100
    72  C          0.47596000       0.04277000       0.88587900
    73  C          0.50466000       0.36993000       0.42683900
    74  C          0.49534000       0.86993000       0.07316100
    75  C          0.49534000       0.63007000       0.57316100
    76  C          0.50466000       0.13007000       0.92683900
    77  C          0.62786000       0.43333000       0.34761900
    78  C          0.37214000       0.93333000       0.15238100
    79  C          0.37214000       0.56667000       0.65238100
    80  C          0.62786000       0.06667000       0.84761900
    81  H          0.59422300       0.49541800       0.32249000
    82  H          0.40577700      -0.00458200       0.17751000
    83  H          0.40577700       0.50458200       0.67751000
    84  H          0.59422300       0.00458200       0.82249000
    85  C          0.83775000       0.32773000       0.33752900
    86  C          0.16225000       0.82773000       0.16247100
    87  C          0.16225000       0.67227000       0.66247100
    88  C          0.83775000       0.17227000       0.83752900
    89  C          0.91716000       0.22013000       0.36690900
    90  C          0.08284000       0.72013000       0.13309100
    91  C          0.08284000       0.77987000       0.63309100
    92  C          0.91716000       0.27987000       0.86690900
    93  H          0.82956900       0.20965600       0.39655000
    94  H          0.17043100       0.70965600       0.10345000
    95  H          0.17043100       0.79034400       0.60345000
    96  H          0.82956900       0.29034400       0.89655000
    97  C          0.12076000       0.12893000       0.35342900
    98  C          0.87924000       0.62893000       0.14657100
    99  C          0.87924000       0.87107000       0.64657100
   100  C          0.12076000       0.37107000       0.85342900
   101  H          0.17398800       0.05696300       0.37407800
   102  H          0.82601200       0.55696300       0.12592200
   103  H          0.82601200       0.94303700       0.62592200
   104  H          0.17398800       0.44303700       0.87407800
   105  C          0.24865000       0.14053000       0.31032900
   106  C          0.75135000       0.64053000       0.18967100
   107  C          0.75135000       0.85947000       0.68967100
   108  C          0.24865000       0.35947000       0.81032900
   109  C          0.17126000       0.24673000       0.28063800
   110  C          0.82874000       0.74673000       0.21936200
   111  C          0.82874000       0.75327000       0.71936200
   112  C          0.17126000       0.25327000       0.78063800
   113  H          0.25843100       0.25603300       0.25092300
   114  H          0.74156900       0.75603300       0.24907700
   115  H          0.74156900       0.74396700       0.74907700
   116  H          0.25843100       0.24396700       0.75092300
   117  C          0.96916000       0.33813000       0.29399900
   118  C          0.03084000       0.83813000       0.20600100
   119  C          0.03084000       0.66187000       0.70600100
   120  C          0.96916000       0.16187000       0.79399900
   121  H          0.91736900       0.41005000       0.27322300
   122  H          0.08263100       0.91005000       0.22677700
   123  H          0.08263100       0.58995000       0.72677700
   124  H          0.91736900       0.08995000       0.77322300
   125  C          0.46866000       0.04133000       0.29805100
   126  C          0.53134000       0.54133000       0.20194900
   127  C          0.53134000       0.95867000       0.70194900
   128  C          0.46866000       0.45867000       0.79805100
   129  H          0.51689900       0.97389200       0.32079200
   130  H          0.48310100       0.47389200       0.17920800
   131  H          0.48310100       0.02610800       0.67920800
   132  H          0.51689900       0.52610800       0.82079200
