data_HIFZIJ
_symmetry_space_group_name_H-M    'P1'
_symmetry_Int_Tables_number       1
loop_
_symmetry_equiv_pos_site_id
_symmetry_equiv_pos_as_xyz
1 x,y,z
_cell_length_a                   7.485115
_cell_length_b                   16.1933
_cell_length_c                   11.0592
_cell_angle_alpha                90.0
_cell_angle_beta                 90.873
_cell_angle_gamma                90.0
loop_
_atom_site_label
_atom_site_type_symbol
_atom_site_fract_x
_atom_site_fract_y
_atom_site_fract_z
     1  O          0.36431180       0.17270700       0.79440110
     2  O          0.63568820       0.67270700       0.70559890
     3  O          0.63568820       0.82729300       0.20559890
     4  O          0.36431180       0.32729300       0.29440110
     5  C          0.25352000       0.50511900       0.92355140
     6  C          0.74648000       0.00511900       0.57644860
     7  C          0.74648000       0.49488100       0.07644860
     8  C          0.25352000      -0.00511900       0.42355140
     9  C          0.32932000       0.25144900       0.83002150
    10  C          0.67068000       0.75144900       0.66997850
    11  C          0.67068000       0.74855100       0.16997850
    12  C          0.32932000       0.24855100       0.33002150
    13  C          0.38562000       0.31342100       0.75312150
    14  C          0.61438000       0.81342100       0.74687850
    15  C          0.61438000       0.68657900       0.24687850
    16  C          0.38562000       0.18657900       0.25312150
    17  H          0.44117700       0.29965800       0.68121500
    18  H          0.55882300       0.79965800       0.81878500
    19  H          0.55882300       0.70034200       0.31878500
    20  H          0.44117700       0.20034200       0.18121500
    21  O          0.19962000       0.94820800       0.03065130
    22  O          0.80038000       0.44820800       0.46934870
    23  O          0.80038000       0.05179200       0.96934870
    24  O          0.19962000       0.55179200       0.53065130
    25  C          0.17032000       0.82390900       0.91893140
    26  C          0.82968000       0.32390900       0.58106860
    27  C          0.82968000       0.17609100       0.08106860
    28  C          0.17032000       0.67609100       0.41893140
    29  C          0.09822000       0.78796100       0.81562140
    30  C          0.90178000       0.28796100       0.68437860
    31  C          0.90178000       0.21203900       0.18437860
    32  C          0.09822000       0.71203900       0.31562140
    33  H          0.03190700       0.81983400       0.76129200
    34  H          0.96809300       0.31983400       0.73870800
    35  H          0.96809300       0.18016600       0.23870800
    36  H          0.03190700       0.68016600       0.26129200
    37  C          0.36032000       0.39465100       0.78195140
    38  C          0.63968000       0.89465100       0.71804860
    39  C          0.63968000       0.60534900       0.21804860
    40  C          0.36032000       0.10534900       0.28195140
    41  H          0.39759500       0.43544800       0.72879900
    42  H          0.60240500       0.93544800       0.77120100
    43  H          0.60240500       0.56455200       0.27120100
    44  H          0.39759500       0.06455200       0.22879900
    45  C          0.27932000       0.41737900       0.89008140
    46  C          0.72068000       0.91737900       0.60991860
    47  C          0.72068000       0.58262100       0.10991860
    48  C          0.27932000       0.08262100       0.39008140
    49  C          0.22412000       0.35457900       0.96583140
    50  C          0.77588000       0.85457900       0.53416860
    51  C          0.77588000       0.64542100       0.03416860
    52  C          0.22412000       0.14542100       0.46583140
    53  H          0.16993500       0.36818900       0.03828400
    54  H          0.83006500       0.86818900       0.46171600
    55  H          0.83006500       0.63181100       0.96171600
    56  H          0.16993500       0.13181100       0.53828400
    57  C          0.22220190       0.65604900       0.87339130
    58  C          0.77779810       0.15604900       0.62660870
    59  C          0.77779810       0.34395100       0.12660870
    60  C          0.22220190       0.84395100       0.37339130
    61  C          0.29692000       0.69321100       0.97589140
    62  C          0.70308000       0.19321100       0.52410860
    63  C          0.70308000       0.30678900       0.02410860
    64  C          0.29692000       0.80678900       0.47589140
    65  H          0.36506700       0.66177300       0.02972800
    66  H          0.63493300       0.16177300       0.47027200
    67  H          0.63493300       0.33822700       0.97027200
    68  H          0.36506700       0.83822700       0.52972800
    69  C          0.22692000       0.51963900       0.05052160
    70  C          0.77308000       0.01963900       0.44947840
    71  C          0.77308000       0.48036100       0.94947840
    72  C          0.22692000       0.98036100       0.55052160
    73  C          0.27112000       0.77567100      -0.00162860
    74  C          0.72888000       0.27567100       0.50162860
    75  C          0.72888000       0.22432900       0.00162860
    76  C          0.27112000       0.72432900       0.49837140
    77  H          0.32147600       0.79948700       0.06738900
    78  H          0.67852400       0.29948700       0.43261100
    79  H          0.67852400       0.20051300       0.93261100
    80  H          0.32147600       0.70051300       0.56738900
    81  C          0.14103000       0.91185110       0.94312170
    82  C          0.85897000       0.41185110       0.55687830
    83  C          0.85897000       0.08814890       0.05687830
    84  C          0.14103000       0.58814890       0.44312170
    85  H          0.07271600       0.94171100       0.88741100
    86  H          0.92728400       0.44171100       0.61258900
    87  H          0.92728400       0.05828900       0.11258900
    88  H          0.07271600       0.55828900       0.38741100
    89  C          0.12422000       0.70552100       0.79293140
    90  C          0.87578000       0.20552100       0.70706860
    91  C          0.87578000       0.29447900       0.20706860
    92  C          0.12422000       0.79447900       0.29293140
    93  H          0.07578400       0.68222800       0.72289100
    94  H          0.92421600       0.18222800       0.77710900
    95  H          0.92421600       0.31777200       0.27710900
    96  H          0.07578400       0.81777200       0.22289100
    97  C          0.24392000       0.56837100       0.84530150
    98  C          0.75608000       0.06837100       0.65469850
    99  C          0.75608000       0.43162900       0.15469850
   100  C          0.24392000       0.93162900       0.34530150
   101  H          0.25204800       0.55490600       0.76381900
   102  H          0.74795200       0.05490600       0.73618100
   103  H          0.74795200       0.44509400       0.23618100
   104  H          0.25204800       0.94509400       0.26381900
   105  C          0.24702000       0.27249900       0.93703150
   106  C          0.75298000       0.77249900       0.56296850
   107  C          0.75298000       0.72750100       0.06296850
   108  C          0.24702000       0.22750100       0.43703150
   109  H          0.20747900       0.23150800      -0.01088700
   110  H          0.79252100       0.73150800       0.51088700
   111  H          0.79252100       0.76849200       0.01088700
   112  H          0.20747900       0.26849200       0.48911300
   113  N          0.20262000       0.52801100       0.15129140
   114  N          0.79738000       0.02801100       0.34870860
   115  N          0.79738000       0.47198900       0.84870860
   116  N          0.20262000       0.97198900       0.65129140
   117  C          0.31993000       0.10756110       0.87391190
   118  C          0.68007000       0.60756110       0.62608810
   119  C          0.68007000       0.89243890       0.12608810
   120  C          0.31993000       0.39243890       0.37391190
   121  H          0.35945400       0.05603400       0.84072500
   122  H          0.64054600       0.55603400       0.65927500
   123  H          0.64054600       0.94396600       0.15927500
   124  H          0.35945400       0.44396600       0.34072500
   125  H          0.19280100       0.10601800       0.88393000
   126  H          0.80719900       0.60601800       0.61607000
   127  H          0.80719900       0.89398200       0.11607000
   128  H          0.19280100       0.39398200       0.38393000
   129  H          0.37744600       0.11645800       0.95099300
   130  H          0.62255400       0.61645800       0.54900700
   131  H          0.62255400       0.88354200       0.04900700
   132  H          0.37744600       0.38354200       0.45099300
