data_HNIABZ21
_symmetry_space_group_name_H-M    'P1'
_symmetry_Int_Tables_number       1
loop_
_symmetry_equiv_pos_site_id
_symmetry_equiv_pos_as_xyz
1 x,y,z
_cell_length_a                   15.40158
_cell_length_b                   5.52403
_cell_length_c                   22.118211
_cell_angle_alpha                90.0
_cell_angle_beta                 110.3672
_cell_angle_gamma                90.0
loop_
_atom_site_label
_atom_site_type_symbol
_atom_site_fract_x
_atom_site_fract_y
_atom_site_fract_z
     1  N          0.26863000       0.00000000       0.52485190
     2  N          0.73137000       0.50000000       0.47514810
     3  C          0.35803000       0.93028700       0.57172000
     4  C          0.64197000       0.43028700       0.42828000
     5  C          0.36814000       0.74138500       0.61693000
     6  C          0.63186000       0.24138500       0.38307000
     7  C          0.45204000       0.67588500       0.65943000
     8  C          0.54796000       0.17588500       0.34057000
     9  H          0.45720000       0.54550000       0.68700000
    10  H          0.54280000       0.04550000       0.31300000
    11  C          0.52914000       0.80448500       0.66113000
    12  C          0.47086000       0.30448500       0.33887000
    13  C          0.52394000      -0.00541400       0.61983000
    14  C          0.47606000       0.49458600       0.38017000
    15  H          0.57640000       0.08180000       0.62160000
    16  H          0.42360000       0.58180000       0.37840000
    17  C          0.43864000       0.05051400       0.57582000
    18  C          0.56136000       0.55051400       0.42418000
    19  N          0.28624000       0.61458500       0.62152000
    20  N          0.71376000       0.11458500       0.37848000
    21  O          0.21953000       0.73438700       0.61682000
    22  O          0.78047000       0.23438700       0.38318000
    23  O          0.29494000       0.39698800       0.63243000
    24  O          0.70506000       0.89698800       0.36757000
    25  N          0.61994000       0.72528100       0.70673000
    26  N          0.38006000       0.22528100       0.29327000
    27  O          0.62344000       0.52388100       0.73193000
    28  O          0.37656000       0.02388100       0.26807000
    29  O          0.68353000       0.87118400       0.71832000
    30  O          0.31647000       0.37118400       0.28168000
    31  N          0.43333000       0.24881300       0.52822000
    32  N          0.56667000       0.74881300       0.47178000
    33  O          0.49583000       0.39811300       0.54522000
    34  O          0.50417000       0.89811300       0.45478000
    35  O          0.37263000       0.24811300       0.47752000
    36  O          0.62737000       0.74811300       0.52248000
    37  N          0.23363000       0.82308600       0.48988180
    38  N          0.76637000       0.32308600       0.51011820
    39  C          0.14553000       0.88248600       0.44112000
    40  C          0.85447000       0.38248600       0.55888000
    41  C          0.07984000       0.04451400       0.44452000
    42  C          0.92016000       0.54451400       0.55548000
    43  C         -0.00264000       0.07771400       0.39482000
    44  C          0.00264000       0.57771400       0.60518000
    45  H          0.95560000       0.19570000       0.39700000
    46  H          0.04440000       0.69570000       0.60300000
    47  C          0.97856000       0.93008600       0.34133000
    48  C          0.02144000       0.43008600       0.65867000
    49  C          0.03944000       0.75638600       0.33613000
    50  C          0.96056000       0.25638600       0.66387000
    51  H          0.02440000       0.65550000       0.30030000
    52  H          0.97560000       0.15550000       0.69970000
    53  C          0.12234000       0.73668600       0.38503000
    54  C          0.87766000       0.23668600       0.61497000
    55  N          0.09263000       0.19401200       0.50242000
    56  N          0.90737000       0.69401200       0.49758000
    57  O          0.09003000       0.09311200       0.55023170
    58  O          0.90997000       0.59311200       0.44976830
    59  O          0.10524000       0.40801100       0.49852000
    60  O          0.89476000       0.90801100       0.50148000
    61  N          0.89146000       0.96678500       0.28682000
    62  N          0.10854000       0.46678500       0.71318000
    63  O          0.85626000       0.16681500       0.28032000
    64  O          0.14374000       0.66681500       0.71968000
    65  O          0.86116000       0.79408500       0.25082000
    66  O          0.13884000       0.29408500       0.74918000
    67  N          0.19514000       0.57628500       0.37702000
    68  N          0.80486000       0.07628500       0.62298000
    69  O          0.17544000       0.36358800       0.36682000
    70  O          0.82456000       0.86358800       0.63318000
    71  O          0.26703000       0.66948700       0.38233000
    72  O          0.73297000       0.16948700       0.61767000
    73  N          0.24952000       0.25911500       0.98048000
    74  N          0.75048000       0.75911500       0.01952000
    75  C          0.28924000       0.20111300       0.93197000
    76  C          0.71076000       0.70111300       0.06803000
    77  C          0.25523000       0.02311400       0.88597000
    78  C          0.74477000       0.52311400       0.11403000
    79  C          0.29294000      -0.02241600       0.83827000
    80  C          0.70706000       0.47758400       0.16173000
    81  H          0.27060000       0.85390000       0.80830000
    82  H          0.72940000       0.35390000       0.19170000
    83  C          0.36454000       0.12401600       0.83757000
    84  C          0.63546000       0.62401600       0.16243000
    85  C          0.40214000       0.30761600       0.88137000
    86  C          0.59786000       0.80761600       0.11863000
    87  H          0.45030000       0.40400000       0.87910000
    88  H          0.54970000       0.90400000       0.12090000
    89  C          0.36334000       0.34041400       0.92957000
    90  C          0.63666000       0.84041400       0.07043000
    91  N          0.17274000       0.87828600       0.88108000
    92  N          0.82726000       0.37828600       0.11892000
    93  O          0.10433000      -0.00721300       0.88228000
    94  O          0.89567000       0.49278700       0.11772000
    95  O          0.17774000       0.66258800       0.87537000
    96  O          0.82226000       0.16258800       0.12463000
    97  N          0.40414000       0.08220000       0.78617000
    98  N          0.59586000       0.58220000       0.21383000
    99  O          0.38885000       0.88558100       0.76057000
   100  O          0.61115000       0.38558100       0.23943000
   101  O          0.44974000       0.24421800       0.77498000
   102  O          0.55026000       0.74421800       0.22502000
   103  N          0.40483000       0.52481400       0.97817000
   104  N          0.59517000       0.02481400       0.02183000
   105  O          0.43834000       0.70291100       0.96218000
   106  O          0.56166000       0.20291100       0.03782000
   107  O          0.40364000       0.48981400       0.03172000
   108  O          0.59636000      -0.01018600       0.96828000
   109  N          0.24183000       0.07631200       0.01112000
   110  N          0.75817000       0.57631200       0.98888000
   111  C          0.20204000       0.12951300       0.05973000
   112  C          0.79796000       0.62951300       0.94027000
   113  C          0.13374000       0.30071400       0.05482000
   114  C          0.86626000       0.80071400       0.94518000
   115  C          0.09794000       0.33851400       0.10393000
   116  C          0.90206000       0.83851400       0.89607000
   117  H          0.05550000       0.46140000       0.10120000
   118  H          0.94450000       0.96140000       0.89880000
   119  C          0.12754000       0.18811500       0.15593000
   120  C          0.87246000       0.68811500       0.84407000
   121  C          0.19254000       0.00401500       0.16293000
   122  C          0.80746000       0.50401500       0.83707000
   123  H          0.20930000       0.89840000       0.19780000
   124  H          0.79070000       0.39840000       0.80220000
   125  C          0.23094000      -0.01201400       0.11423000
   126  C          0.76906000       0.48798600       0.88577000
   127  N          0.09273000       0.44841200      -0.00332000
   128  N          0.90727000       0.94841200       0.00332000
   129  O          0.04433000       0.34691100       0.94740840
   130  O          0.95567000       0.84691100       0.05259160
   131  O          0.10453000       0.66791100       0.00262000
   132  O          0.89547000       0.16791100      -0.00262000
   133  N          0.09094000       0.22071800       0.20932000
   134  N          0.90906000       0.72071800       0.79068000
   135  O          0.07084000       0.42971500       0.21752000
   136  O          0.92916000       0.92971500       0.78248000
   137  O          0.08755000       0.04751700       0.24023000
   138  O          0.91245000       0.54751700       0.75977000
   139  N          0.30824000       0.81938600       0.12532000
   140  N          0.69176000       0.31938600       0.87468000
   141  O          0.30244000       0.61478700       0.14483000
   142  O          0.69756000       0.11478700       0.85517000
   143  O          0.37734000       0.90008600       0.11562000
   144  O          0.62266000       0.40008600       0.88438000
