data_HNIABZ11
_symmetry_space_group_name_H-M    'P1'
_symmetry_Int_Tables_number       1
loop_
_symmetry_equiv_pos_site_id
_symmetry_equiv_pos_as_xyz
1 x,y,z
_cell_length_a                   10.6324
_cell_length_b                   21.8697
_cell_length_c                   7.5853
_cell_angle_alpha                90.0
_cell_angle_beta                 102.564
_cell_angle_gamma                90.0
loop_
_atom_site_label
_atom_site_type_symbol
_atom_site_fract_x
_atom_site_fract_y
_atom_site_fract_z
     1  C          0.80905000       0.58218000       0.64782000
     2  C          0.69095000       0.08218000       0.35218000
     3  C          0.19095000       0.41782000       0.35218000
     4  C          0.30905000       0.91782000       0.64782000
     5  C         -0.01419000       0.69646000       0.92310000
     6  C          0.51419000       0.19646000       0.07690000
     7  C          0.01419000       0.30354000       0.07690000
     8  C          0.48581000       0.80354000       0.92310000
     9  C          0.84893000       0.57238000       0.48982000
    10  C          0.65107000       0.07238000       0.51018000
    11  C          0.15107000       0.42762000       0.51018000
    12  C          0.34893000       0.92762000       0.48982000
    13  C          0.92604000       0.75330000       0.89199000
    14  C          0.57396000       0.25330000       0.10801000
    15  C          0.07396000       0.24670000       0.10801000
    16  C          0.42604000       0.74670000       0.89199000
    17  C          0.80865000       0.52275000       0.37993000
    18  C          0.69135000       0.02275000       0.62007000
    19  C          0.19135000       0.47725000       0.62007000
    20  C          0.30865000       0.97725000       0.37993000
    21  C          0.95434000       0.80061000       0.01213000
    22  C          0.54566000       0.30061000      -0.01213000
    23  C          0.04566000       0.19939000      -0.01213000
    24  C          0.45434000       0.69939000       0.01213000
    25  C          0.72396000       0.48319000       0.42871000
    26  C          0.77604000       0.98319000       0.57129000
    27  C          0.27604000       0.51681000       0.57129000
    28  C          0.22396000       0.01681000       0.42871000
    29  C          0.04475000       0.79084000       0.16976000
    30  C          0.45525000       0.29084000       0.83024000
    31  C          0.95525000       0.20916000       0.83024000
    32  C          0.54475000       0.70916000       0.16976000
    33  C          0.67928000       0.49043000       0.58188000
    34  C          0.82072000       0.99043000       0.41812000
    35  C          0.32072000       0.50957000       0.41812000
    36  C          0.17928000       0.00957000       0.58188000
    37  C          0.10916000       0.73707000       0.20719000
    38  C          0.39084000       0.23707000       0.79281000
    39  C          0.89084000       0.26293000       0.79281000
    40  C          0.60916000       0.76293000       0.20719000
    41  C          0.72371000       0.53948000       0.69031000
    42  C          0.77629000       0.03948000       0.30969000
    43  C          0.27629000       0.46052000       0.30969000
    44  C          0.22371000       0.96052000       0.69031000
    45  C          0.07967000       0.69048000       0.08284000
    46  C          0.42033000       0.19048000       0.91716000
    47  C          0.92033000       0.30952000       0.91716000
    48  C          0.57967000       0.80952000       0.08284000
    49  H          0.83700000       0.51900000       0.29110000
    50  H          0.66300000       0.01900000       0.70890000
    51  H          0.16300000       0.48100000       0.70890000
    52  H          0.33700000       0.98100000       0.29110000
    53  H          0.91490000       0.83370000      -0.00490000
    54  H          0.58510000       0.33370000       0.00490000
    55  H          0.08510000       0.16630000       0.00490000
    56  H          0.41490000       0.66630000      -0.00490000
    57  H          0.62680000       0.46660000       0.61240000
    58  H          0.87320000       0.96660000       0.38760000
    59  H          0.37320000       0.53340000       0.38760000
    60  H          0.12680000       0.03340000       0.61240000
    61  H          0.16520000       0.73320000       0.29810000
    62  H          0.33480000       0.23320000       0.70190000
    63  H          0.83480000       0.26680000       0.70190000
    64  H          0.66520000       0.76680000       0.29810000
    65  N          0.84080000       0.63498000       0.76174000
    66  N          0.65920000       0.13498000       0.23826000
    67  N          0.15920000       0.36502000       0.23826000
    68  N          0.34080000       0.86502000       0.76174000
    69  N          0.95854000       0.64526000       0.80370000
    70  N          0.54146000       0.14526000       0.19630000
    71  N          0.04146000       0.35474000       0.19630000
    72  N          0.45854000       0.85474000       0.80370000
    73  N          0.93237000       0.61730000       0.42394000
    74  N          0.56763000       0.11730000       0.57606000
    75  N          0.06763000       0.38270000       0.57606000
    76  N          0.43237000       0.88270000       0.42394000
    77  N          0.83016000       0.76535000       0.72211000
    78  N          0.66984000       0.26535000       0.27789000
    79  N          0.16984000       0.23465000       0.27789000
    80  N          0.33016000       0.73465000       0.72211000
    81  N          0.68029000       0.42964000       0.31146000
    82  N          0.81971000       0.92964000       0.68854000
    83  N          0.31971000       0.57036000       0.68854000
    84  N          0.18029000       0.07036000       0.31146000
    85  N          0.06960000       0.84075000       0.30663000
    86  N          0.43040000       0.34075000       0.69337000
    87  N          0.93040000       0.15925000       0.69337000
    88  N          0.56960000       0.65925000       0.30663000
    89  N          0.67982000       0.54494000       0.86210000
    90  N          0.82018000       0.04494000       0.13790000
    91  N          0.32018000       0.45506000       0.13790000
    92  N          0.17982000       0.95506000       0.86210000
    93  N          0.14560000       0.63148000       0.12805000
    94  N          0.35440000       0.13148000       0.87195000
    95  N          0.85440000       0.36852000       0.87195000
    96  N          0.64560000       0.86852000       0.12805000
    97  O          0.87969000       0.65940000       0.33704000
    98  O          0.62031000       0.15940000       0.66296000
    99  O          0.12031000       0.34060000       0.66296000
   100  O          0.37969000       0.84060000       0.33704000
   101  O          0.86330000       0.75474000       0.58257000
   102  O          0.63670000       0.25474000       0.41743000
   103  O          0.13670000       0.24526000       0.41743000
   104  O          0.36330000       0.74526000       0.58257000
   105  O          0.04590000       0.60780000       0.45533000
   106  O          0.45410000       0.10780000       0.54467000
   107  O          0.95410000       0.39220000       0.54467000
   108  O          0.54590000       0.89220000       0.45533000
   109  O          0.72810000       0.78665000       0.73679000
   110  O          0.77190000       0.28665000       0.26321000
   111  O          0.27190000       0.21335000       0.26321000
   112  O          0.22810000       0.71335000       0.73679000
   113  O          0.72026000       0.42545000       0.17392000
   114  O          0.77974000       0.92545000       0.82608000
   115  O          0.27974000       0.57455000       0.82608000
   116  O          0.22026000       0.07455000       0.17392000
   117  O          0.04114000       0.89268000       0.25384000
   118  O          0.45886000       0.39268000       0.74616000
   119  O          0.95886000       0.10732000       0.74616000
   120  O          0.54114000       0.60732000       0.25384000
   121  O          0.60737000       0.39399000       0.36024000
   122  O          0.89263000       0.89399000       0.63976000
   123  O          0.39263000       0.60601000       0.63976000
   124  O          0.10737000       0.10601000       0.36024000
   125  O          0.11630000       0.82587000       0.46121000
   126  O          0.38370000       0.32587000       0.53879000
   127  O          0.88370000       0.17413000       0.53879000
   128  O          0.61630000       0.67413000       0.46121000
   129  O          0.57739000       0.52268000       0.87082000
   130  O          0.92261000       0.02268000       0.12918000
   131  O          0.42261000       0.47732000       0.12918000
   132  O          0.07739000       0.97732000       0.87082000
   133  O          0.25780000       0.63361000       0.21000000
   134  O          0.24220000       0.13361000       0.79000000
   135  O          0.74220000       0.36639000       0.79000000
   136  O          0.75780000       0.86639000       0.21000000
   137  O          0.75351000       0.56959000      -0.01240000
   138  O          0.74649000       0.06959000       0.01240000
   139  O          0.24649000       0.43041000       0.01240000
   140  O          0.25351000       0.93041000      -0.01240000
   141  O          0.08334000       0.58495000       0.08631000
   142  O          0.41666000       0.08495000       0.91369000
   143  O          0.91666000       0.41505000       0.91369000
   144  O          0.58334000       0.91505000       0.08631000
