data_HNIABZ20
_symmetry_space_group_name_H-M    'P1'
_symmetry_Int_Tables_number       1
loop_
_symmetry_equiv_pos_site_id
_symmetry_equiv_pos_as_xyz
1 x,y,z
_cell_length_a                   10.1494
_cell_length_b                   8.2633
_cell_length_c                   10.0554
_cell_angle_alpha                90.0
_cell_angle_beta                 97.294
_cell_angle_gamma                90.0
loop_
_atom_site_label
_atom_site_type_symbol
_atom_site_fract_x
_atom_site_fract_y
_atom_site_fract_z
     1  C          0.61816000      -0.01313000       0.14281000
     2  C          0.38184000       0.48687000       0.35719000
     3  C          0.38184000       0.01313000       0.85719000
     4  C          0.61816000       0.51313000       0.64281000
     5  C          0.60726000       0.01719000       0.27766000
     6  C          0.39274000       0.51719000       0.22234000
     7  C          0.39274000       0.98281000       0.72234000
     8  C          0.60726000       0.48281000       0.77766000
     9  C          0.71188000       0.06897000       0.36903000
    10  C          0.28812000       0.56897000       0.13097000
    11  C          0.28812000       0.93103000       0.63097000
    12  C          0.71188000       0.43103000       0.86903000
    13  C          0.83302000       0.08690000       0.32142000
    14  C          0.16698000       0.58690000       0.17858000
    15  C          0.16698000       0.91310000       0.67858000
    16  C          0.83302000       0.41310000       0.82142000
    17  C          0.85360000       0.04762000       0.19113000
    18  C          0.14640000       0.54762000       0.30887000
    19  C          0.14640000       0.95238000       0.80887000
    20  C          0.85360000       0.45238000       0.69113000
    21  C          0.74527000      -0.00423000       0.10475000
    22  C          0.25473000       0.49577000       0.39525000
    23  C          0.25473000       0.00423000       0.89525000
    24  C          0.74527000       0.50423000       0.60475000
    25  H          0.70110000       0.09340000       0.46510000
    26  H          0.29890000       0.59340000       0.03490000
    27  H          0.29890000       0.90660000       0.53490000
    28  H          0.70110000       0.40660000       0.96510000
    29  H          0.94300000       0.06280000       0.16210000
    30  H          0.05700000       0.56280000       0.33790000
    31  H          0.05700000       0.93720000       0.83790000
    32  H          0.94300000       0.43720000       0.66210000
    33  N          0.49915000       0.96215000       0.05338000
    34  N          0.50085000       0.46215000       0.44662000
    35  N          0.50085000       0.03785000       0.94662000
    36  N          0.49915000       0.53785000       0.55338000
    37  N          0.47629000       0.00025000       0.32674000
    38  N          0.52371000       0.50025000       0.17326000
    39  N          0.52371000      -0.00025000       0.67326000
    40  N          0.47629000       0.49975000       0.82674000
    41  N          0.94506000       0.15109000       0.41357000
    42  N          0.05494000       0.65109000       0.08643000
    43  N          0.05494000       0.84891000       0.58643000
    44  N          0.94506000       0.34891000       0.91357000
    45  N          0.76979000       0.94211000       0.96885000
    46  N          0.23021000       0.44211000       0.53115000
    47  N          0.23021000       0.05789000       0.03115000
    48  N          0.76979000       0.55789000       0.46885000
    49  O          0.41836000       0.87305000       0.30661000
    50  O          0.58164000       0.37305000       0.19339000
    51  O          0.58164000       0.12695000       0.69339000
    52  O          0.41836000       0.62695000       0.80661000
    53  O          0.43776000       0.11296000       0.39001000
    54  O          0.56224000       0.61296000       0.10999000
    55  O          0.56224000       0.88704000       0.60999000
    56  O          0.43776000       0.38704000       0.89001000
    57  O          0.04268000       0.19721000       0.36273000
    58  O          0.95732000       0.69721000       0.13727000
    59  O          0.95732000       0.80279000       0.63727000
    60  O          0.04268000       0.30279000       0.86273000
    61  O          0.93490000       0.15653000       0.53376000
    62  O          0.06510000       0.65653000       0.96624000
    63  O          0.06510000       0.84347000       0.46624000
    64  O          0.93490000       0.34347000       0.03376000
    65  O          0.71112000       0.82363000       0.92169000
    66  O          0.28888000       0.32363000       0.57831000
    67  O          0.28888000       0.17637000       0.07831000
    68  O          0.71112000       0.67637000       0.42169000
    69  O          0.84988000       0.02066000       0.91339000
    70  O          0.15012000       0.52066000       0.58661000
    71  O          0.15012000       0.97934000       0.08661000
    72  O          0.84988000       0.47934000       0.41339000
