data_HOEDSO02
_symmetry_space_group_name_H-M    'P1'
_symmetry_Int_Tables_number       1
loop_
_symmetry_equiv_pos_site_id
_symmetry_equiv_pos_as_xyz
1 x,y,z
_cell_length_a                   5.80503
_cell_length_b                   8.35666
_cell_length_c                   8.74336
_cell_angle_alpha                90.0
_cell_angle_beta                 95.1484
_cell_angle_gamma                90.0
loop_
_atom_site_label
_atom_site_type_symbol
_atom_site_fract_x
_atom_site_fract_y
_atom_site_fract_z
     1  O          0.03777170       0.61584150       0.29236140
     2  O          0.46222830       0.11584150       0.20763860
     3  O          0.96222830       0.38415850       0.70763860
     4  O          0.53777170       0.88415850       0.79236140
     5  O          0.42982000       0.65073130       0.21941130
     6  O          0.07018000       0.15073130       0.28058870
     7  O          0.57018000       0.34926870       0.78058870
     8  O          0.92982000       0.84926870       0.71941130
     9  O          0.30307190       0.79554120       0.43552130
    10  O          0.19692810       0.29554120       0.06447870
    11  O          0.69692810       0.20445880       0.56447870
    12  O          0.80307190       0.70445880       0.93552130
    13  S          0.27802400       0.64978300       0.34467300
    14  S          0.22197600       0.14978300       0.15532700
    15  S          0.72197600       0.35021700       0.65532700
    16  S          0.77802400       0.85021700       0.84467300
    17  C          0.37532000       0.48838150       0.46678140
    18  C          0.12468000      -0.01161850       0.03321860
    19  C          0.62468000       0.51161850       0.53321860
    20  C          0.87532000       0.01161850       0.96678140
    21  H          0.27050000       0.47630000       0.54130000
    22  H          0.22950000       0.97630000       0.95870000
    23  H          0.72950000       0.52370000       0.45870000
    24  H          0.77050000       0.02370000       0.04130000
    25  H          0.36040000       0.39330000       0.40420000
    26  H          0.13960000       0.89330000       0.09580000
    27  H          0.63960000       0.60670000       0.59580000
    28  H          0.86040000       0.10670000       0.90420000
    29  O          0.77082000       0.90258150       0.39286160
    30  O          0.72918000       0.40258150       0.10713840
    31  O          0.22918000       0.09741850       0.60713840
    32  O          0.27082000       0.59741850       0.89286160
    33  H          0.82260000       0.00930000       0.35740000
    34  H          0.67740000       0.50930000       0.14260000
    35  H          0.17740000      -0.00930000       0.64260000
    36  H          0.32260000       0.49070000       0.85740000
    37  H          0.58840000       0.88940000       0.38340000
    38  H          0.91160000       0.38940000       0.11660000
    39  H          0.41160000       0.11060000       0.61660000
    40  H          0.08840000       0.61060000       0.88340000
    41  H          0.79740000       0.79530000       0.35030000
    42  H          0.70260000       0.29530000       0.14970000
    43  H          0.20260000       0.20470000       0.64970000
    44  H          0.29740000       0.70470000       0.85030000
