data_HOEDSO01
_symmetry_space_group_name_H-M    'P1'
_symmetry_Int_Tables_number       1
loop_
_symmetry_equiv_pos_site_id
_symmetry_equiv_pos_as_xyz
1 x,y,z
_cell_length_a                   5.3662
_cell_length_b                   12.3714
_cell_length_c                   6.2252
_cell_angle_alpha                90.0
_cell_angle_beta                 95.942
_cell_angle_gamma                90.0
loop_
_atom_site_label
_atom_site_type_symbol
_atom_site_fract_x
_atom_site_fract_y
_atom_site_fract_z
     1  S          0.31878600       0.40125400       0.72532700
     2  S          0.68121400       0.90125400       0.77467300
     3  S          0.68121400       0.59874600       0.27467300
     4  S          0.31878600       0.09874600       0.22532700
     5  O          0.22387220       0.44134120       0.92311220
     6  O          0.77612780       0.94134120       0.57688780
     7  O          0.77612780       0.55865880       0.07688780
     8  O          0.22387220       0.05865880       0.42311220
     9  O          0.52323210       0.32348120       0.76870230
    10  O          0.47676790       0.82348120       0.73129770
    11  O          0.47676790       0.67651880       0.23129770
    12  O          0.52323210       0.17651880       0.26870230
    13  O          0.11876220       0.35865130       0.57028220
    14  O          0.88123780       0.85865130       0.92971780
    15  O          0.88123780       0.64134870       0.42971780
    16  O          0.11876220       0.14134870       0.07028220
    17  C          0.44181280       0.51619160       0.60137290
    18  C          0.55818720       0.01619160       0.89862710
    19  C          0.55818720       0.48380840       0.39862710
    20  C          0.44181280       0.98380840       0.10137290
    21  H          0.57935800       0.54752600       0.71494100
    22  H          0.42064200       0.04752600       0.78505900
    23  H          0.42064200       0.45247400       0.28505900
    24  H          0.57935800       0.95247400       0.21494100
    25  H          0.29754100       0.56692000       0.55803800
    26  H          0.70245900       0.06692000       0.94196200
    27  H          0.70245900       0.43308000       0.44196200
    28  H          0.29754100       0.93308000       0.05803800
    29  O          0.88493770       0.17831110       0.56956230
    30  O          0.11506230       0.67831110       0.93043770
    31  O          0.11506230       0.82168890       0.43043770
    32  O          0.88493770       0.32168890       0.06956230
    33  H         -0.02206200       0.25542600       0.58414700
    34  H          0.02206200       0.75542600       0.91585300
    35  H          0.02206200       0.74457400       0.41585300
    36  H         -0.02206200       0.24457400       0.08414700
    37  H          0.70531200       0.16833900       0.45117500
    38  H          0.29468800       0.66833900       0.04882500
    39  H          0.29468800       0.83166100       0.54882500
    40  H          0.70531200       0.33166100       0.95117500
    41  H         -0.02567200       0.13843400       0.51796500
    42  H          0.02567200       0.63843400      -0.01796500
    43  H          0.02567200       0.86156600       0.48203500
    44  H         -0.02567200       0.36156600       0.01796500
