data_HOEDSO03
_symmetry_space_group_name_H-M    'P1'
_symmetry_Int_Tables_number       1
loop_
_symmetry_equiv_pos_site_id
_symmetry_equiv_pos_as_xyz
1 x,y,z
_cell_length_a                   5.03713
_cell_length_b                   5.54242
_cell_length_c                   8.81884
_cell_angle_alpha                98.4265
_cell_angle_beta                 104.5113
_cell_angle_gamma                91.6634
loop_
_atom_site_label
_atom_site_type_symbol
_atom_site_fract_x
_atom_site_fract_y
_atom_site_fract_z
     1  O          0.60304000      -0.01117000       0.76422000
     2  O          0.39696000       0.01117000       0.23578000
     3  O          0.66224000       0.57603000       0.82522000
     4  O          0.33776000       0.42397000       0.17478000
     5  O          0.21194000       0.69954000       0.70863000
     6  O          0.78806000       0.30046000       0.29137000
     7  S          0.50463110       0.73087900       0.72171600
     8  S          0.49536890       0.26912100       0.27828400
     9  C          0.55335000       0.63244000       0.53023000
    10  C          0.44665000       0.36756000       0.46977000
    11  H          0.47370000       0.75060000       0.45940000
    12  H          0.52630000       0.24940000       0.54060000
    13  H          0.73770000       0.65460000       0.52640000
    14  H          0.26230000       0.34540000       0.47360000
    15  O          0.13605000       0.25544000       0.84433000
    16  O          0.86395000       0.74456000       0.15567000
    17  H          0.31810000       0.17380000       0.82750000
    18  H          0.68190000       0.82620000       0.17250000
    19  H          0.11370000       0.41560000       0.79850000
    20  H          0.88630000       0.58440000       0.20150000
    21  H          0.94320000       0.17360000       0.82250000
    22  H          0.05680000       0.82640000       0.17750000
