data_HOEDSO
_symmetry_space_group_name_H-M    'P1'
_symmetry_Int_Tables_number       1
loop_
_symmetry_equiv_pos_site_id
_symmetry_equiv_pos_as_xyz
1 x,y,z
_cell_length_a                   5.3562
_cell_length_b                   12.4133
_cell_length_c                   6.2742
_cell_angle_alpha                90.0
_cell_angle_beta                 96.195
_cell_angle_gamma                90.0
loop_
_atom_site_label
_atom_site_type_symbol
_atom_site_fract_x
_atom_site_fract_y
_atom_site_fract_z
     1  C          0.55720000       0.48460000       0.39980000
     2  C          0.44280000       0.98460000       0.10020000
     3  C          0.44280000       0.51540000       0.60020000
     4  C          0.55720000       0.01540000       0.89980000
     5  H          0.42200000       0.46700000       0.28500000
     6  H          0.57800000       0.96700000       0.21500000
     7  H          0.57800000       0.53300000       0.71500000
     8  H          0.42200000       0.03300000       0.78500000
     9  H          0.71400000       0.43200000       0.43900000
    10  H          0.28600000       0.93200000       0.06100000
    11  H          0.28600000       0.56800000       0.56100000
    12  H          0.71400000       0.06800000       0.93900000
    13  O          0.77590000       0.56000000       0.08330000
    14  O          0.22410000       0.06000000       0.41670000
    15  O          0.22410000       0.44000000       0.91670000
    16  O          0.77590000       0.94000000       0.58330000
    17  O          0.87730000       0.64200000       0.43200000
    18  O          0.12270000       0.14200000       0.06800000
    19  O          0.12270000       0.35800000       0.56800000
    20  O          0.87730000       0.85800000       0.93200000
    21  O          0.47470000       0.67590000       0.23270000
    22  O          0.52530000       0.17590000       0.26730000
    23  O          0.52530000       0.32410000       0.76730000
    24  O          0.47470000       0.82410000       0.73270000
    25  S          0.67950000       0.59920000       0.27740000
    26  S          0.32050000       0.09920000       0.22260000
    27  S          0.32050000       0.40080000       0.72260000
    28  S          0.67950000       0.90080000       0.77740000
    29  H          0.07000000       0.74100000       0.92600000
    30  H          0.93000000       0.24100000       0.57400000
    31  H          0.93000000       0.25900000       0.07400000
    32  H          0.07000000       0.75900000       0.42600000
    33  H          0.27700000       0.68100000       0.09100000
    34  H          0.72300000       0.18100000       0.40900000
    35  H          0.72300000       0.31900000       0.90900000
    36  H          0.27700000       0.81900000       0.59100000
    37  H          0.08200000       0.62200000       0.97100000
    38  H          0.91800000       0.12200000       0.52900000
    39  H          0.91800000       0.37800000       0.02900000
    40  H          0.08200000       0.87800000       0.47100000
    41  O          0.11160000       0.67910000       0.93480000
    42  O          0.88840000       0.17910000       0.56520000
    43  O          0.88840000       0.32090000       0.06520000
    44  O          0.11160000       0.82090000       0.43480000
