data_HOHKEV
_symmetry_space_group_name_H-M    'P1'
_symmetry_Int_Tables_number       1
loop_
_symmetry_equiv_pos_site_id
_symmetry_equiv_pos_as_xyz
1 x,y,z
_cell_length_a                   14.07205
_cell_length_b                   8.06643
_cell_length_c                   10.88234
_cell_angle_alpha                90.0
_cell_angle_beta                 92.8372
_cell_angle_gamma                90.0
loop_
_atom_site_label
_atom_site_type_symbol
_atom_site_fract_x
_atom_site_fract_y
_atom_site_fract_z
     1  O          0.28989718       0.19058400       0.35155200
     2  O          0.71010282       0.69058400       0.14844800
     3  O          0.71010282       0.80941600       0.64844800
     4  O          0.28989718       0.30941600       0.85155200
     5  H          0.23887000       0.23071100       0.26808000
     6  H          0.76113000       0.73071100       0.23192000
     7  H          0.76113000       0.76928900       0.73192000
     8  H          0.23887000       0.26928900       0.76808000
     9  O          0.36879119       0.06615400       0.20376200
    10  O          0.63120881       0.56615400       0.29623800
    11  O          0.63120881       0.93384600       0.79623800
    12  O          0.36879119       0.43384600       0.70376200
    13  C          0.42006200       0.08892400       0.53391300
    14  C          0.57993800       0.58892400       0.96608700
    15  C          0.57993800       0.91107600       0.46608700
    16  C          0.42006200       0.41107600       0.03391300
    17  H          0.36570000       0.14900000       0.55690000
    18  H          0.63430000       0.64900000       0.94310000
    19  H          0.63430000       0.85100000       0.44310000
    20  H          0.36570000       0.35100000       0.05690000
    21  C          0.43223200       0.05123400       0.41037300
    22  C          0.56776800       0.55123400       0.08962700
    23  C          0.56776800       0.94876600       0.58962700
    24  C          0.43223200       0.44876600       0.91037300
    25  C          0.51190200       0.96214600       0.37708300
    26  C          0.48809800       0.46214600       0.12291700
    27  C          0.48809800       0.03785400       0.62291700
    28  C          0.51190200       0.53785400       0.87708300
    29  H          0.51970000       0.93620000       0.29300000
    30  H          0.48030000       0.43620000       0.20700000
    31  H          0.48030000       0.06380000       0.70700000
    32  H          0.51970000       0.56380000       0.79300000
    33  C          0.36027200       0.10431400       0.31222300
    34  C          0.63972800       0.60431400       0.18777700
    35  C          0.63972800       0.89568600       0.68777700
    36  C          0.36027200       0.39568600       0.81222300
    37  O          0.18401200       0.27249400       0.17689200
    38  O          0.81598800       0.77249400       0.32310800
    39  O          0.81598800       0.72750600       0.82310800
    40  O          0.18401200       0.22750600       0.67689200
    41  O          0.11642200       0.44626300       0.30660200
    42  O          0.88357800       0.94626300       0.19339800
    43  O          0.88357800       0.55373700       0.69339800
    44  O          0.11642200       0.05373700       0.80660200
    45  C          0.98294800       0.54724400       0.11988300
    46  C          0.01705200       0.04724400       0.38011700
    47  C          0.01705200       0.45275600       0.88011700
    48  C          0.98294800       0.95275600       0.61988300
    49  H          0.97140000       0.57980000       0.20170000
    50  H          0.02860000       0.07980000       0.29830000
    51  H          0.02860000       0.42020000       0.79830000
    52  H          0.97140000       0.92020000       0.70170000
    53  C          0.05960200       0.44361400       0.09759300
    54  C          0.94039800       0.94361400       0.40240700
    55  C          0.94039800       0.55638600       0.90240700
    56  C          0.05960200       0.05638600       0.59759300
    57  C          0.07659200       0.39696400       0.97710700
    58  C          0.92340800       0.89696400       0.52289300
    59  C          0.92340800       0.60303600       0.02289300
    60  C          0.07659200       0.10303600       0.47710700
    61  H          0.12890000       0.32700000       0.96140000
    62  H          0.87110000       0.82700000       0.53860000
    63  H          0.87110000       0.67300000       0.03860000
    64  H          0.12890000       0.17300000       0.46140000
    65  C          0.12403200       0.38506400       0.20281300
    66  C          0.87596800       0.88506400       0.29718700
    67  C          0.87596800       0.61493600       0.79718700
    68  C          0.12403200       0.11493600       0.70281300
    69  N          0.22495200       0.97364400       0.01472300
    70  N          0.77504800       0.47364400       0.48527700
    71  N          0.77504800       0.02635600       0.98527700
    72  N          0.22495200       0.52635600       0.51472300
    73  H          0.20116000       0.02569000       0.93534000
    74  H          0.79884000       0.52569000       0.56466000
    75  H          0.79884000       0.97431000       0.06466000
    76  H          0.20116000       0.47431000       0.43534000
    77  H          0.25265000       0.04979000       0.06966000
    78  H          0.74735000       0.54979000       0.43034000
    79  H          0.74735000       0.95021000       0.93034000
    80  H          0.25265000       0.45021000       0.56966000
    81  C          0.14112300       0.90055500       0.07469300
    82  C          0.85887700       0.40055500       0.42530700
    83  C          0.85887700       0.09944500       0.92530700
    84  C          0.14112300       0.59944500       0.57469300
    85  H          0.11230000       0.81350000       0.02060000
    86  H          0.88770000       0.31350000       0.47940000
    87  H          0.88770000       0.18650000       0.97940000
    88  H          0.11230000       0.68650000       0.52060000
    89  H          0.09270000      -0.01200000       0.08480000
    90  H          0.90730000       0.48800000       0.41520000
    91  H          0.90730000       0.01200000       0.91520000
    92  H          0.09270000       0.51200000       0.58480000
    93  C          0.16830300       0.82624500       0.19894400
    94  C          0.83169700       0.32624500       0.30105600
    95  C          0.83169700       0.17375500       0.80105600
    96  C          0.16830300       0.67375500       0.69894400
    97  H          0.21340000       0.73530000       0.18880000
    98  H          0.78660000       0.23530000       0.31120000
    99  H          0.78660000       0.26470000       0.81120000
   100  H          0.21340000       0.76470000       0.68880000
   101  H          0.11120000       0.78370000       0.23630000
   102  H          0.88880000       0.28370000       0.26370000
   103  H          0.88880000       0.21630000       0.76370000
   104  H          0.11120000       0.71630000       0.73630000
   105  H          0.19790000       0.91150000       0.25230000
   106  H          0.80210000       0.41150000       0.24770000
   107  H          0.80210000       0.08850000       0.74770000
   108  H          0.19790000       0.58850000       0.75230000
   109  C          0.29825300       0.84970500       0.98126600
   110  C          0.70174700       0.34970500       0.51873400
   111  C          0.70174700       0.15029500       0.01873400
   112  C          0.29825300       0.65029500       0.48126600
   113  H          0.26700000       0.75650000       0.93600000
   114  H          0.73300000       0.25650000       0.56400000
   115  H          0.73300000       0.24350000       0.06400000
   116  H          0.26700000       0.74350000       0.43600000
   117  H          0.33050000       0.80480000       0.05710000
   118  H          0.66950000       0.30480000       0.44290000
   119  H          0.66950000       0.19520000       0.94290000
   120  H          0.33050000       0.69520000       0.55710000
   121  C          0.37106400       0.92929700       0.90206500
   122  C          0.62893600       0.42929700       0.59793500
   123  C          0.62893600       0.07070300       0.09793500
   124  C          0.37106400       0.57070300       0.40206500
   125  H          0.33930000       0.97130000       0.82620000
   126  H          0.66070000       0.47130000       0.67380000
   127  H          0.66070000       0.02870000       0.17380000
   128  H          0.33930000       0.52870000       0.32620000
   129  H          0.41890000       0.84680000       0.88160000
   130  H          0.58110000       0.34680000       0.61840000
   131  H          0.58110000       0.15320000       0.11840000
   132  H          0.41890000       0.65320000       0.38160000
   133  H          0.40210000       0.02130000       0.94710000
   134  H          0.59790000       0.52130000       0.55290000
   135  H          0.59790000       0.97870000       0.05290000
   136  H          0.40210000       0.47870000       0.44710000
