data_HOHKEV06
_symmetry_space_group_name_H-M    'P1'
_symmetry_Int_Tables_number       1
loop_
_symmetry_equiv_pos_site_id
_symmetry_equiv_pos_as_xyz
1 x,y,z
_cell_length_a                   14.03738
_cell_length_b                   8.20034
_cell_length_c                   10.94946
_cell_angle_alpha                90.0
_cell_angle_beta                 93.2545
_cell_angle_gamma                90.0
loop_
_atom_site_label
_atom_site_type_symbol
_atom_site_fract_x
_atom_site_fract_y
_atom_site_fract_z
     1  C          0.12680110       0.11264170       0.70039130
     2  C          0.87319890       0.61264170       0.79960870
     3  C          0.87319890       0.88735830       0.29960870
     4  C          0.12680110       0.38735830       0.20039130
     5  C          0.06099100       0.05551160       0.59582130
     6  C          0.93900900       0.55551160       0.90417870
     7  C          0.93900900       0.94448840       0.40417870
     8  C          0.06099100       0.44448840       0.09582130
     9  C          0.98483890       0.95361820       0.61917140
    10  C          0.01516110       0.45361820       0.88082860
    11  C          0.01516110       0.04638180       0.38082860
    12  C          0.98483890       0.54638180       0.11917140
    13  H          0.97483400       0.92174400       0.69894300
    14  H          0.02516600       0.42174400       0.80105700
    15  H          0.02516600       0.07825600       0.30105700
    16  H          0.97483400       0.57825600       0.19894300
    17  C          0.07605120       0.10033180       0.47636140
    18  C          0.92394880       0.60033180       0.02363860
    19  C          0.92394880       0.89966820       0.52363860
    20  C          0.07605120       0.39966820       0.97636140
    21  H          0.12739800       0.16709300       0.46024500
    22  H          0.87260200       0.66709300       0.03975500
    23  H          0.87260200       0.83290700       0.53975500
    24  H          0.12739800       0.33290700       0.96024500
    25  O          0.11989900       0.05422130       0.80320100
    26  O          0.88010100       0.55422130       0.69679900
    27  O          0.88010100       0.94577870       0.19679900
    28  O          0.11989900       0.44577870       0.30320100
    29  O          0.18677900       0.22284150       0.67363100
    30  O          0.81322100       0.72284150       0.82636900
    31  O          0.81322100       0.77715850       0.32636900
    32  O          0.18677900       0.27715850       0.17363100
    33  C          0.36198110       0.39443170       0.81038140
    34  C          0.63801890       0.89443170       0.68961860
    35  C          0.63801890       0.60556830       0.18961860
    36  C          0.36198110       0.10556830       0.31038140
    37  C          0.43341110       0.44783170       0.90993130
    38  C          0.56658890       0.94783170       0.59006870
    39  C          0.56658890       0.55216830       0.09006870
    40  C          0.43341110       0.05216830       0.40993130
    41  C          0.42102120       0.41056190       0.03139150
    42  C          0.57897880       0.91056190       0.46860850
    43  C          0.57897880       0.58943810       0.96860850
    44  C          0.42102120       0.08943810       0.53139150
    45  H          0.36783800       0.35151800       0.05253900
    46  H          0.63216200       0.85151800       0.44746100
    47  H          0.63216200       0.64848200       0.94746100
    48  H          0.36783800       0.14848200       0.55253900
    49  C          0.51209120       0.53869190       0.87862140
    50  C          0.48790880       0.03869190       0.62137860
    51  C          0.48790880       0.46130810       0.12137860
    52  C          0.51209120       0.96130810       0.37862140
    53  H          0.51980700       0.56540100       0.79723000
    54  H          0.48019300       0.06540100       0.70277000
    55  H          0.48019300       0.43459900       0.20277000
    56  H          0.51980700       0.93459900       0.29723000
    57  H          0.23820000       0.26430000       0.76820000
    58  H          0.76180000       0.76430000       0.73180000
    59  H          0.76180000       0.73570000       0.23180000
    60  H          0.23820000       0.23570000       0.26820000
    61  O          0.29357900       0.30429140       0.84730110
    62  O          0.70642100       0.80429140       0.65269890
    63  O          0.70642100       0.69570860       0.15269890
    64  O          0.29357900       0.19570860       0.34730110
    65  O          0.36991900       0.43638150       0.70415100
    66  O          0.63008100       0.93638150       0.79584900
    67  O          0.63008100       0.56361850       0.29584900
    68  O          0.36991900       0.06361850       0.20415100
    69  C          0.14133170       0.90672000       0.07272190
    70  C          0.85866830       0.40672000       0.42727810
    71  C          0.85866830       0.09328000       0.92727810
    72  C          0.14133170       0.59328000       0.57272190
    73  H          0.09606900      -0.00595700       0.08386500
    74  H          0.90393100       0.49404300       0.41613500
    75  H          0.90393100       0.00595700       0.91613500
    76  H          0.09606900       0.50595700       0.58386500
    77  H          0.11053700       0.82603400       0.01901400
    78  H          0.88946300       0.32603400       0.48098600
    79  H          0.88946300       0.17396600       0.98098600
    80  H          0.11053700       0.67396600       0.51901400
    81  C          0.16741190       0.82973000       0.19406190
    82  C          0.83258810       0.32973000       0.30593810
    83  C          0.83258810       0.17027000       0.80593810
    84  C          0.16741190       0.67027000       0.69406190
    85  H          0.21026400       0.74033400       0.18301900
    86  H          0.78973600       0.24033400       0.31698100
    87  H          0.78973600       0.25966600       0.81698100
    88  H          0.21026400       0.75966600       0.68301900
    89  H          0.11075900       0.79029200       0.22942600
    90  H          0.88924100       0.29029200       0.27057400
    91  H          0.88924100       0.20970800       0.77057400
    92  H          0.11075900       0.70970800       0.72942600
    93  H          0.19792200       0.90907800       0.24752900
    94  H          0.80207800       0.40907800       0.25247100
    95  H          0.80207800       0.09092200       0.75247100
    96  H          0.19792200       0.59092200       0.74752900
    97  C          0.29707170       0.85132000       0.97805810
    98  C          0.70292830       0.35132000       0.52194190
    99  C          0.70292830       0.14868000       0.02194190
   100  C          0.29707170       0.64868000       0.47805810
   101  H          0.26416400       0.76529500       0.93181800
   102  H          0.73583600       0.26529500       0.56818200
   103  H          0.73583600       0.23470500       0.06818200
   104  H          0.26416400       0.73470500       0.43181800
   105  H          0.32767300       0.80327300       0.05112000
   106  H          0.67232700       0.30327300       0.44888000
   107  H          0.67232700       0.19672700       0.94888000
   108  H          0.32767300       0.69672700       0.55112000
   109  C          0.37032000       0.92543000       0.90307000
   110  C          0.62968000       0.42543000       0.59693000
   111  C          0.62968000       0.07457000       0.09693000
   112  C          0.37032000       0.57457000       0.40307000
   113  H          0.33977400       0.97730500       0.83277200
   114  H          0.66022600       0.47730500       0.66722800
   115  H          0.66022600       0.02269500       0.16722800
   116  H          0.33977400       0.52269500       0.33277200
   117  H          0.41267400       0.84198600       0.87708800
   118  H          0.58732600       0.34198600       0.62291200
   119  H          0.58732600       0.15801400       0.12291200
   120  H          0.41267400       0.65801400       0.37708800
   121  H          0.40606400       0.00489000       0.95105500
   122  H          0.59393600       0.50489000       0.54894500
   123  H          0.59393600      -0.00489000       0.04894500
   124  H          0.40606400       0.49511000       0.45105500
   125  N          0.22784130       0.97464180       0.01292120
   126  N          0.77215870       0.47464180       0.48707880
   127  N          0.77215870       0.02535820       0.98707880
   128  N          0.22784130       0.52535820       0.51292120
   129  H          0.20795500       0.02989100       0.94630600
   130  H          0.79204500       0.52989100       0.55369400
   131  H          0.79204500       0.97010900       0.05369400
   132  H          0.20795500       0.47010900       0.44630600
   133  H          0.25729900       0.04479900       0.06430300
   134  H          0.74270100       0.54479900       0.43569700
   135  H          0.74270100       0.95520100       0.93569700
   136  H          0.25729900       0.45520100       0.56430300
