data_HOHKEV01
_symmetry_space_group_name_H-M    'P1'
_symmetry_Int_Tables_number       1
loop_
_symmetry_equiv_pos_site_id
_symmetry_equiv_pos_as_xyz
1 x,y,z
_cell_length_a                   14.05606
_cell_length_b                   8.12783
_cell_length_c                   10.91324
_cell_angle_alpha                90.0
_cell_angle_beta                 93.0734
_cell_angle_gamma                90.0
loop_
_atom_site_label
_atom_site_type_symbol
_atom_site_fract_x
_atom_site_fract_y
_atom_site_fract_z
     1  C          0.37518800       0.11431130       0.29772100
     2  C          0.62481200       0.61431130       0.20227900
     3  C          0.62481200       0.88568870       0.70227900
     4  C          0.37518800       0.38568870       0.79772100
     5  C          0.44020700       0.05588120       0.40298100
     6  C          0.55979300       0.55588120       0.09701900
     7  C          0.55979300       0.94411880       0.59701900
     8  C          0.44020700       0.44411880       0.90298100
     9  C          0.42396800       0.10244130       0.52261100
    10  C          0.57603200       0.60244130       0.97738900
    11  C          0.57603200       0.89755870       0.47738900
    12  C          0.42396800       0.39755870       0.02261100
    13  H          0.37189100       0.17251200       0.53823000
    14  H          0.62810900       0.67251200       0.96177000
    15  H          0.62810900       0.82748800       0.46177000
    16  H          0.37189100       0.32748800       0.03823000
    17  C          0.51640800       0.95312870       0.38070100
    18  C          0.48359200       0.45312870       0.11929900
    19  C          0.48359200       0.04687130       0.61929900
    20  C          0.51640800       0.54687130       0.88070100
    21  H          0.52768000       0.92086500       0.29907400
    22  H          0.47232000       0.42086500       0.20092600
    23  H          0.47232000       0.07913500       0.70092600
    24  H          0.52768000       0.57913500       0.79907400
    25  O          0.38251600       0.05407900       0.19453700
    26  O          0.61748400       0.55407900       0.30546300
    27  O          0.61748400       0.94592100       0.80546300
    28  O          0.38251600       0.44592100       0.69453700
    29  O          0.31560600       0.22597100       0.32386800
    30  O          0.68439400       0.72597100       0.17613200
    31  O          0.68439400       0.77402900       0.67613200
    32  O          0.31560600       0.27402900       0.82386800
    33  C          0.13941800       0.39524130       0.18826100
    34  C          0.86058200       0.89524130       0.31173900
    35  C          0.86058200       0.60475870       0.81173900
    36  C          0.13941800       0.10475870       0.68826100
    37  C          0.06738800       0.44861120       0.08959100
    38  C          0.93261200       0.94861120       0.41040900
    39  C          0.93261200       0.55138880       0.91040900
    40  C          0.06738800       0.05138880       0.58959100
    41  C          0.07946800       0.41123140       0.96730900
    42  C          0.92053200       0.91123140       0.53269100
    43  C          0.92053200       0.58876860       0.03269100
    44  C          0.07946800       0.08876860       0.46730900
    45  H          0.13377200       0.35094800       0.94492700
    46  H          0.86622800       0.85094800       0.55507300
    47  H          0.86622800       0.64905200       0.05507300
    48  H          0.13377200       0.14905200       0.44492700
    49  C          0.98818200       0.53769140       0.12236100
    50  C          0.01181800       0.03769140       0.37763900
    51  C          0.01181800       0.46230860       0.87763900
    52  C          0.98818200       0.96230860       0.62236100
    53  H          0.98029500       0.56368800       0.20607300
    54  H          0.01970500       0.06368800       0.29392700
    55  H          0.01970500       0.43631200       0.79392700
    56  H          0.98029500       0.93631200       0.70607300
    57  H          0.25811400       0.26820000       0.23051700
    58  H          0.74188600       0.76820000       0.26948300
    59  H          0.74188600       0.73180000       0.76948300
    60  H          0.25811400       0.23180000       0.73051700
    61  O          0.20902600       0.30805100       0.14969700
    62  O          0.79097400       0.80805100       0.35030300
    63  O          0.79097400       0.69194900       0.85030300
    64  O          0.20902600       0.19194900       0.64969700
    65  O          0.13100600       0.43424100       0.29579700
    66  O          0.86899400       0.93424100       0.20420300
    67  O          0.86899400       0.56575900       0.70420300
    68  O          0.13100600       0.06575900       0.79579700
    69  C          0.79777100       0.14925160       0.98015880
    70  C          0.20222900       0.64925160       0.51984120
    71  C          0.20222900       0.85074840       0.01984120
    72  C          0.79777100       0.35074840       0.48015880
    73  H          0.82979000       0.19549200       0.05549900
    74  H          0.17021000       0.69549200       0.44450100
    75  H          0.17021000       0.80450800       0.94450100
    76  H          0.82979000       0.30450800       0.55549900
    77  H          0.76568000       0.24053700       0.93431300
    78  H          0.23432000       0.74053700       0.56568700
    79  H          0.23432000       0.75946300       0.06568700
    80  H          0.76568000       0.25946300       0.43431300
    81  C          0.87074120       0.07239190       0.90247850
    82  C          0.12925880       0.57239190       0.59752150
    83  C          0.12925880       0.92760810       0.09752150
    84  C          0.87074120       0.42760810       0.40247850
    85  H          0.90316000      -0.01694500       0.94829000
    86  H          0.09684000       0.48305500       0.55171000
    87  H          0.09684000       0.01694500       0.05171000
    88  H          0.90316000       0.51694500       0.44829000
    89  H          0.91748400       0.15568200       0.88119900
    90  H          0.08251600       0.65568200       0.61880100
    91  H          0.08251600       0.84431800       0.11880100
    92  H          0.91748400       0.34431800       0.38119900
    93  H          0.83919200       0.02824800       0.82724400
    94  H          0.16080800       0.52824800       0.67275600
    95  H          0.16080800       0.97175200       0.17275600
    96  H          0.83919200       0.47175200       0.32724400
    97  C          0.64133100       0.09662160       0.07385120
    98  C          0.35866900       0.59662160       0.42614880
    99  C          0.35866900       0.90337840       0.92614880
   100  C          0.64133100       0.40337840       0.57385120
   101  H          0.59388000       0.00848600       0.08460400
   102  H          0.40612000       0.50848600       0.41539600
   103  H          0.40612000      -0.00848600       0.91539600
   104  H          0.59388000       0.49151400       0.58460400
   105  H          0.61132200       0.18129900       0.01920800
   106  H          0.38867800       0.68129900       0.48079200
   107  H          0.38867800       0.81870100       0.98079200
   108  H          0.61132200       0.31870100       0.51920800
   109  C          0.66777110       0.17285170       0.19683120
   110  C          0.33222890       0.67285170       0.30316880
   111  C          0.33222890       0.82714830       0.80316880
   112  C          0.66777110       0.32714830       0.69683120
   113  H          0.69826800       0.08990100       0.25098000
   114  H          0.30173200       0.58990100       0.24902000
   115  H          0.30173200       0.91009900       0.74902000
   116  H          0.69826800       0.41009900       0.75098000
   117  H          0.61019400       0.21398400       0.23338900
   118  H          0.38980600       0.71398400       0.26661100
   119  H          0.38980600       0.78601600       0.76661100
   120  H          0.61019400       0.28601600       0.73338900
   121  H          0.71203100       0.26424400       0.18612300
   122  H          0.28796900       0.76424400       0.31387700
   123  H          0.28796900       0.73575600       0.81387700
   124  H          0.71203100       0.23575600       0.68612300
   125  N          0.72554800       0.02593120       0.01439900
   126  N          0.27445200       0.52593120       0.48560100
   127  N          0.27445200       0.97406880       0.98560100
   128  N          0.72554800       0.47406880       0.51439900
   129  H          0.75424400       0.95148600       0.06653100
   130  H          0.24575600       0.45148600       0.43346900
   131  H          0.24575600       0.04851400       0.93346900
   132  H          0.75424400       0.54851400       0.56653100
   133  H          0.70459900       0.97080700       0.94554600
   134  H          0.29540100       0.47080700       0.55445400
   135  H          0.29540100       0.02919300       0.05445400
   136  H          0.70459900       0.52919300       0.44554600
