data_HOHKEV02
_symmetry_space_group_name_H-M    'P1'
_symmetry_Int_Tables_number       1
loop_
_symmetry_equiv_pos_site_id
_symmetry_equiv_pos_as_xyz
1 x,y,z
_cell_length_a                   14.05046
_cell_length_b                   8.13873
_cell_length_c                   10.91994
_cell_angle_alpha                90.0
_cell_angle_beta                 93.1004
_cell_angle_gamma                90.0
loop_
_atom_site_label
_atom_site_type_symbol
_atom_site_fract_x
_atom_site_fract_y
_atom_site_fract_z
     1  C          0.12492800       0.11417130       0.20208100
     2  C          0.87507200       0.61417130       0.29791900
     3  C          0.87507200       0.88582870       0.79791900
     4  C          0.12492800       0.38582870       0.70208100
     5  C          0.05991700       0.05596120       0.09685100
     6  C          0.94008300       0.55596120       0.40314900
     7  C          0.94008300       0.94403880       0.90314900
     8  C          0.05991700       0.44403880       0.59685100
     9  C          0.98378200       0.95323870       0.11929100
    10  C          0.01621800       0.45323870       0.38070900
    11  C          0.01621800       0.04676130       0.88070900
    12  C          0.98378200       0.54676130       0.61929100
    13  H          0.97289200       0.92156900       0.19915500
    14  H          0.02710800       0.42156900       0.30084500
    15  H          0.02710800       0.07843100       0.80084500
    16  H          0.97289200       0.57843100       0.69915500
    17  C          0.07598800       0.10214130       0.97736900
    18  C          0.92401200       0.60214130       0.52263100
    19  C          0.92401200       0.89785870       0.02263100
    20  C          0.07598800       0.39785870       0.47736900
    21  H          0.12702400       0.17048000       0.96201100
    22  H          0.87297600       0.67048000       0.53798900
    23  H          0.87297600       0.82952000       0.03798900
    24  H          0.12702400       0.32952000       0.46201100
    25  O          0.11774600       0.05408900       0.30521700
    26  O          0.88225400       0.55408900       0.19478300
    27  O          0.88225400       0.94591100       0.69478300
    28  O          0.11774600       0.44591100       0.80521700
    29  O          0.18458600       0.22565100       0.17597800
    30  O          0.81541400       0.72565100       0.32402200
    31  O          0.81541400       0.77434900       0.82402200
    32  O          0.18458600       0.27434900       0.67597800
    33  C          0.36079800       0.39523130       0.31156100
    34  C          0.63920200       0.89523130       0.18843900
    35  C          0.63920200       0.60476870       0.68843900
    36  C          0.36079800       0.10476870       0.81156100
    37  C          0.43270800       0.44844120       0.41036100
    38  C          0.56729200       0.94844120       0.08963900
    39  C          0.56729200       0.55155880       0.58963900
    40  C          0.43270800       0.05155880       0.91036100
    41  C          0.42059800       0.41114140       0.53273110
    42  C          0.57940200       0.91114140       0.96726890
    43  C          0.57940200       0.58885860       0.46726890
    44  C          0.42059800       0.08885860       0.03273110
    45  H          0.36745900       0.35211900       0.55468600
    46  H          0.63254100       0.85211900       0.94531400
    47  H          0.63254100       0.64788100       0.44531400
    48  H          0.36745900       0.14788100       0.05468600
    49  C          0.51176800       0.53758140       0.37788110
    50  C          0.48823200       0.03758140       0.12211890
    51  C          0.48823200       0.46241860       0.62211890
    52  C          0.51176800       0.96241860       0.87788110
    53  H          0.51944000       0.56303900       0.29598400
    54  H          0.48056000       0.06303900       0.20401600
    55  H          0.48056000       0.43696100       0.70401600
    56  H          0.51944000       0.93696100       0.79598400
    57  H          0.24181400       0.27020000       0.26861700
    58  H          0.75818600       0.77020000       0.23138300
    59  H          0.75818600       0.72980000       0.73138300
    60  H          0.24181400       0.22980000       0.76861700
    61  O          0.29125600       0.30779100       0.35001700
    62  O          0.70874400       0.80779100       0.14998300
    63  O          0.70874400       0.69220900       0.64998300
    64  O          0.29125600       0.19220900       0.85001700
    65  O          0.36906600       0.43427100       0.20416700
    66  O          0.63093400       0.93427100       0.29583300
    67  O          0.63093400       0.56572900       0.79583300
    68  O          0.36906600       0.06572900       0.70416700
    69  C          0.29771100       0.64913160       0.97972880
    70  C          0.70228900       0.14913160       0.52027120
    71  C          0.70228900       0.35086840       0.02027120
    72  C          0.29771100       0.85086840       0.47972880
    73  H          0.32910500       0.69471100       0.05339800
    74  H          0.67089500       0.19471100       0.44660200
    75  H          0.67089500       0.30528900       0.94660200
    76  H          0.32910500       0.80528900       0.55339800
    77  H          0.26611400       0.73821800       0.93470900
    78  H          0.73388600       0.23821800       0.56529100
    79  H          0.73388600       0.26178200       0.06529100
    80  H          0.26611400       0.76178200       0.43470900
    81  C          0.37064120       0.57262000       0.90228840
    82  C          0.62935880       0.07262000       0.59771160
    83  C          0.62935880       0.42738000       0.09771160
    84  C          0.37064120       0.92738000       0.40228840
    85  H          0.40213900       0.48473700       0.94695300
    86  H          0.59786100      -0.01526300       0.55304700
    87  H          0.59786100       0.51526300       0.05304700
    88  H          0.40213900       0.01526300       0.44695300
    89  H          0.41666400       0.65394600       0.88195500
    90  H          0.58333600       0.15394600       0.61804500
    91  H          0.58333600       0.34605400       0.11804500
    92  H          0.41666400       0.84605400       0.38195500
    93  H          0.33980500       0.53002700       0.82835000
    94  H          0.66019500       0.03002700       0.67165000
    95  H          0.66019500       0.46997300       0.17165000
    96  H          0.33980500       0.96997300       0.32835000
    97  C          0.14120100       0.59616160       0.07370120
    98  C          0.85879900       0.09616160       0.42629880
    99  C          0.85879900       0.40383840       0.92629880
   100  C          0.14120100       0.90383840       0.57370120
   101  H          0.09485400       0.50969700       0.08433700
   102  H          0.90514600       0.00969700       0.41566300
   103  H          0.90514600       0.49030300       0.91566300
   104  H          0.09485400      -0.00969700       0.58433700
   105  H          0.11160100       0.67887800       0.02022600
   106  H          0.88839900       0.17887800       0.47977400
   107  H          0.88839900       0.32112200       0.97977400
   108  H          0.11160100       0.82112200       0.52022600
   109  C          0.16782120       0.67239170       0.19657120
   110  C          0.83217880       0.17239170       0.30342880
   111  C          0.83217880       0.32760830       0.80342880
   112  C          0.16782120       0.82760830       0.69657120
   113  H          0.19752300       0.59115600       0.24969000
   114  H          0.80247700       0.09115600       0.25031000
   115  H          0.80247700       0.40884400       0.75031000
   116  H          0.19752300       0.90884400       0.74969000
   117  H          0.11148400       0.71309400       0.23227500
   118  H          0.88851600       0.21309400       0.26772500
   119  H          0.88851600       0.28690600       0.76772500
   120  H          0.11148400       0.78690600       0.73227500
   121  H          0.21139800       0.76147900       0.18602200
   122  H          0.78860200       0.26147900       0.31397800
   123  H          0.78860200       0.23852100       0.81397800
   124  H          0.21139800       0.73852100       0.68602200
   125  N          0.22562800       0.52595120       0.01425900
   126  N          0.77437200       0.02595120       0.48574100
   127  N          0.77437200       0.47404880       0.98574100
   128  N          0.22562800       0.97404880       0.51425900
   129  H          0.25386900       0.45348300       0.06529000
   130  H          0.74613100       0.95348300       0.43471000
   131  H          0.74613100       0.54651700       0.93471000
   132  H          0.25386900       0.04651700       0.56529000
   133  H          0.20516700       0.47183300       0.94705800
   134  H          0.79483300       0.97183300       0.55294200
   135  H          0.79483300       0.52816700       0.05294200
   136  H          0.20516700       0.02816700       0.44705800
