data_HOHRIF02
_symmetry_space_group_name_H-M    'P1'
_symmetry_Int_Tables_number       1
loop_
_symmetry_equiv_pos_site_id
_symmetry_equiv_pos_as_xyz
1 x,y,z
_cell_length_a                   10.71706
_cell_length_b                   5.23892
_cell_length_c                   18.12359
_cell_angle_alpha                90.0
_cell_angle_beta                 94.4455
_cell_angle_gamma                90.0
loop_
_atom_site_label
_atom_site_type_symbol
_atom_site_fract_x
_atom_site_fract_y
_atom_site_fract_z
     1  C          0.92932000       0.65075000       0.30390140
     2  C          0.07068000       0.15075000       0.19609860
     3  C          0.07068000       0.34925000       0.69609860
     4  C          0.92932000       0.84925000       0.80390140
     5  H         -0.00390000       0.53710000       0.30580000
     6  H          0.00390000       0.03710000       0.19420000
     7  H          0.00390000       0.46290000       0.69420000
     8  H         -0.00390000       0.96290000       0.80580000
     9  C          0.82982000       0.60654000       0.25223130
    10  C          0.17018000       0.10654000       0.24776870
    11  C          0.17018000       0.39346000       0.74776870
    12  C          0.82982000       0.89346000       0.75223130
    13  H          0.83020000       0.46630000       0.22080000
    14  H          0.16980000       0.96630000       0.27920000
    15  H          0.16980000       0.53370000       0.77920000
    16  H          0.83020000       0.03370000       0.72080000
    17  C          0.73012190       0.77384000       0.24813110
    18  C          0.26987810       0.27384000       0.25186890
    19  C          0.26987810       0.22616000       0.75186890
    20  C          0.73012190       0.72616000       0.74813110
    21  C          0.73422000      -0.02286000       0.29640130
    22  C          0.26578000       0.47714000       0.20359870
    23  C          0.26578000       0.02286000       0.70359870
    24  C          0.73422000       0.52286000       0.79640130
    25  H          0.66920000       0.09500000       0.29520000
    26  H          0.33080000       0.59500000       0.20480000
    27  H          0.33080000       0.90500000       0.70480000
    28  H          0.66920000       0.40500000       0.79520000
    29  C          0.83792000       0.00185000       0.34692130
    30  C          0.16208000       0.50185000       0.15307870
    31  C          0.16208000      -0.00185000       0.65307870
    32  C          0.83792000       0.49815000       0.84692130
    33  H          0.83910000       0.13740000       0.38010000
    34  H          0.16090000       0.63740000       0.11990000
    35  H          0.16090000       0.86260000       0.61990000
    36  H          0.83910000       0.36260000       0.88010000
    37  C          0.62132000       0.71984000       0.19297120
    38  C          0.37868000       0.21984000       0.30702880
    39  C          0.37868000       0.28016000       0.80702880
    40  C          0.62132000       0.78016000       0.69297120
    41  C          0.42702000       0.10724000       0.07943120
    42  C          0.57298000       0.60724000       0.42056880
    43  C          0.57298000       0.89276000       0.92056880
    44  C          0.42702000       0.39276000       0.57943120
    45  H          0.47370000       0.25430000       0.08980000
    46  H          0.52630000       0.75430000       0.41020000
    47  H          0.52630000       0.74570000       0.91020000
    48  H          0.47370000       0.24570000       0.58980000
    49  C          0.32002000       0.12244000       0.02702120
    50  C          0.67998000       0.62244000       0.47297880
    51  C          0.67998000       0.87756000       0.97297880
    52  C          0.32002000       0.37756000       0.52702120
    53  C          0.27312000       0.31765000       0.98647860
    54  C          0.72688000       0.81765000       0.51352140
    55  C          0.72688000       0.68235000       0.01352140
    56  C          0.27312000       0.18235000       0.48647860
    57  H          0.30620000       0.48150000       0.98540000
    58  H          0.69380000      -0.01850000       0.51460000
    59  H          0.69380000       0.51850000       0.01460000
    60  H          0.30620000       0.01850000       0.48540000
    61  C          0.16443000       0.23016000       0.94555860
    62  C          0.83557000       0.73016000       0.55444140
    63  C          0.83557000       0.76984000       0.05444140
    64  C          0.16443000       0.26984000       0.44555860
    65  H          0.11180000       0.32430000       0.91270000
    66  H          0.88820000       0.82430000       0.58730000
    67  H          0.88820000       0.67570000       0.08730000
    68  H          0.11180000       0.17570000       0.41270000
    69  C          0.15243000      -0.01114000       0.96322840
    70  C          0.84757000       0.48886000       0.53677160
    71  C          0.84757000       0.01114000       0.03677160
    72  C          0.15243000       0.51114000       0.46322840
    73  H          0.08820000       0.88290000       0.94400000
    74  H          0.91180000       0.38290000       0.55600000
    75  H          0.91180000       0.11710000       0.05600000
    76  H          0.08820000       0.61710000       0.44400000
    77  N          0.93503190       0.84554000       0.35096110
    78  N          0.06496810       0.34554000       0.14903890
    79  N          0.06496810       0.15446000       0.64903890
    80  N          0.93503190       0.65446000       0.85096110
    81  N          0.56465170       0.92683000       0.16272100
    82  N          0.43534830       0.42683000       0.33727900
    83  N          0.43534830       0.07317000       0.83727900
    84  N          0.56465170       0.57317000       0.66272100
    85  H          0.59260000       0.07640000       0.17450000
    86  H          0.40740000       0.57640000       0.32550000
    87  H          0.40740000       0.92360000       0.82550000
    88  H          0.59260000       0.42360000       0.67450000
    89  N          0.46090170       0.90084000       0.11234100
    90  N          0.53909830       0.40084000       0.38765900
    91  N          0.53909830       0.09916000       0.88765900
    92  N          0.46090170       0.59916000       0.61234100
    93  O          0.59098160       0.50043000       0.17760100
    94  O          0.40901840       0.00043000       0.32239900
    95  O          0.40901840       0.49957000       0.82239900
    96  O          0.59098160      -0.00043000       0.67760100
    97  O          0.24672170       0.91423000       0.01371110
    98  O          0.75327830       0.41423000       0.48628890
    99  O          0.75327830       0.08577000       0.98628890
   100  O          0.24672170       0.58577000       0.51371110
