data_HOHRIF01
_symmetry_space_group_name_H-M    'P1'
_symmetry_Int_Tables_number       1
loop_
_symmetry_equiv_pos_site_id
_symmetry_equiv_pos_as_xyz
1 x,y,z
_cell_length_a                   14.1883
_cell_length_b                   5.28503
_cell_length_c                   26.9546
_cell_angle_alpha                90.0
_cell_angle_beta                 93.5501
_cell_angle_gamma                90.0
loop_
_atom_site_label
_atom_site_type_symbol
_atom_site_fract_x
_atom_site_fract_y
_atom_site_fract_z
     1  O          0.11141190       0.58775000       0.08199900
     2  O          0.88858810       0.08775000       0.41800100
     3  O          0.88858810       0.41225000       0.91800100
     4  O          0.11141190       0.91225000       0.58199900
     5  O          0.12392000      -0.00124000       0.25131900
     6  O          0.87608000       0.49876000       0.24868100
     7  O          0.87608000       0.00124000       0.74868100
     8  O          0.12392000       0.50124000       0.75131900
     9  C          0.13943000       0.39608000       0.16266130
    10  C          0.86057000       0.89608000       0.33733870
    11  C          0.86057000       0.60392000       0.83733870
    12  C          0.13943000       0.10392000       0.66266130
    13  H          0.15330000       0.25100000       0.18120000
    14  H          0.84670000       0.75100000       0.31880000
    15  H          0.84670000       0.74900000       0.81880000
    16  H          0.15330000       0.24900000       0.68120000
    17  C          0.13683000       0.37987000       0.11006130
    18  C          0.86317000       0.87987000       0.38993870
    19  C          0.86317000       0.62013000       0.88993870
    20  C          0.13683000       0.12013000       0.61006130
    21  C          0.15343000       0.18528000       0.07988140
    22  C          0.84657000       0.68528000       0.42011860
    23  C          0.84657000       0.81472000       0.92011860
    24  C          0.15343000       0.31472000       0.57988140
    25  H          0.17150000       0.02290000       0.08980000
    26  H          0.82850000       0.52290000       0.41020000
    27  H          0.82850000      -0.02290000       0.91020000
    28  H          0.17150000       0.47710000       0.58980000
    29  C          0.13853000       0.27079000       0.03057150
    30  C          0.86147000       0.77079000       0.46942850
    31  C          0.86147000       0.72921000       0.96942850
    32  C          0.13853000       0.22921000       0.53057150
    33  H          0.14480000       0.17670000       0.00180000
    34  H          0.85520000       0.67670000       0.49820000
    35  H          0.85520000       0.82330000      -0.00180000
    36  H          0.14480000       0.32330000       0.50180000
    37  C          0.11343000       0.51461000       0.03337130
    38  C          0.88657000       0.01461000       0.46662870
    39  C          0.88657000       0.48539000       0.96662870
    40  C          0.11343000      -0.01461000       0.53337130
    41  H          0.09930000       0.61910000       0.00620000
    42  H          0.90070000       0.11910000       0.49380000
    43  H          0.90070000       0.38090000       0.99380000
    44  H          0.09930000       0.88090000       0.50620000
    45  C          0.12143000       0.78198000       0.26641140
    46  C          0.87857000       0.28198000       0.23358860
    47  C          0.87857000       0.21802000       0.73358860
    48  C          0.12143000       0.71802000       0.76641140
    49  C          0.11642000       0.72547000       0.32071120
    50  C          0.88358000       0.22547000       0.17928880
    51  C          0.88358000       0.27453000       0.67928880
    52  C          0.11642000       0.77453000       0.82071120
    53  C          0.06903000       0.51948000       0.33887120
    54  C          0.93097000       0.01948000       0.16112880
    55  C          0.93097000       0.48052000       0.66112880
    56  C          0.06903000      -0.01948000       0.83887120
    57  H          0.03820000       0.40380000       0.31750000
    58  H          0.96180000       0.90380000       0.18250000
    59  H          0.96180000       0.59620000       0.68250000
    60  H          0.03820000       0.09620000       0.81750000
    61  C          0.06893000       0.49119000       0.39021130
    62  C          0.93107000      -0.00881000       0.10978870
    63  C          0.93107000       0.50881000       0.60978870
    64  C          0.06893000       0.00881000       0.89021130
    65  H          0.03630000       0.35360000       0.40220000
    66  H          0.96370000       0.85360000       0.09780000
    67  H          0.96370000       0.64640000       0.59780000
    68  H          0.03630000       0.14640000       0.90220000
    69  C          0.15573000       0.84189000       0.40422140
    70  C          0.84427000       0.34189000       0.09577860
    71  C          0.84427000       0.15811000       0.59577860
    72  C          0.15573000       0.65811000       0.90422140
    73  H          0.18600000       0.95480000       0.42630000
    74  H          0.81400000       0.45480000       0.07370000
    75  H          0.81400000       0.04520000       0.57370000
    76  H          0.18600000       0.54520000       0.92630000
    77  C          0.15953000       0.88908000       0.35440130
    78  C          0.84047000       0.38908000       0.14559870
    79  C          0.84047000       0.11092000       0.64559870
    80  C          0.15953000       0.61092000       0.85440130
    81  H          0.19110000       0.03090000       0.34350000
    82  H          0.80890000       0.53090000       0.15650000
    83  H          0.80890000       0.96910000       0.65650000
    84  H          0.19110000       0.46910000       0.84350000
    85  N          0.12332000       0.60247000       0.18561100
    86  N          0.87668000       0.10247000       0.31438900
    87  N          0.87668000       0.39753000       0.81438900
    88  N          0.12332000       0.89753000       0.68561100
    89  N          0.12372000       0.57596000       0.23691100
    90  N          0.87628000       0.07596000       0.26308900
    91  N          0.87628000       0.42404000       0.76308900
    92  N          0.12372000       0.92404000       0.73691100
    93  H          0.12540000       0.42730000       0.24990000
    94  H          0.87460000       0.92730000       0.25010000
    95  H          0.87460000       0.57270000       0.75010000
    96  H          0.12540000       0.07270000       0.74990000
    97  N          0.11152000       0.64477000       0.42317110
    98  N          0.88848000       0.14477000       0.07682890
    99  N          0.88848000       0.35523000       0.57682890
   100  N          0.11152000       0.85523000       0.92317110
   101  O          0.39204190       0.08215000       0.07518900
   102  O          0.60795810       0.58215000       0.42481100
   103  O          0.60795810       0.91785000       0.92481100
   104  O          0.39204190       0.41785000       0.57518900
   105  O          0.37922000       0.49255000       0.24332800
   106  O          0.62078000      -0.00745000       0.25667200
   107  O          0.62078000       0.50745000       0.75667200
   108  O          0.37922000       0.00745000       0.74332800
   109  C          0.36593000       0.88912000       0.15415130
   110  C          0.63407000       0.38912000       0.34584870
   111  C          0.63407000       0.11088000       0.84584870
   112  C          0.36593000       0.61088000       0.65415130
   113  H          0.35400000       0.74280000       0.17190000
   114  H          0.64600000       0.24280000       0.32810000
   115  H          0.64600000       0.25720000       0.82810000
   116  H          0.35400000       0.75720000       0.67190000
   117  C          0.36773000       0.87313000       0.10137130
   118  C          0.63227000       0.37313000       0.39862870
   119  C          0.63227000       0.12687000       0.89862870
   120  C          0.36773000       0.62687000       0.60137130
   121  C          0.34903000       0.67972000       0.07026140
   122  C          0.65097000       0.17972000       0.42973860
   123  C          0.65097000       0.32028000       0.92973860
   124  C          0.34903000       0.82028000       0.57026140
   125  H          0.33140000       0.51700000       0.07890000
   126  H          0.66860000       0.01700000       0.42110000
   127  H          0.66860000       0.48300000       0.92110000
   128  H          0.33140000      -0.01700000       0.57890000
   129  C          0.36123000       0.77011000       0.02147140
   130  C          0.63877000       0.27011000       0.47852860
   131  C          0.63877000       0.22989000       0.97852860
   132  C          0.36123000       0.72989000       0.52147140
   133  H          0.35300000       0.67920000       0.99200000
   134  H          0.64700000       0.17920000       0.50800000
   135  H          0.64700000       0.32080000       0.00800000
   136  H          0.35300000       0.82080000       0.49200000
   137  C          0.38703000       0.01199000       0.02648130
   138  C          0.61297000       0.51199000       0.47351870
   139  C          0.61297000      -0.01199000       0.97351870
   140  C          0.38703000       0.48801000       0.52648130
   141  H          0.39970000       0.11830000       0.00020000
   142  H          0.60030000       0.61830000       0.49980000
   143  H          0.60030000       0.88170000      -0.00020000
   144  H          0.39970000       0.38170000       0.50020000
   145  C          0.38023000       0.27367000       0.25867140
   146  C          0.61977000       0.77367000       0.24132860
   147  C          0.61977000       0.72633000       0.74132860
   148  C          0.38023000       0.22633000       0.75867140
   149  C          0.38372000       0.22137000       0.31310120
   150  C          0.61628000       0.72137000       0.18689880
   151  C          0.61628000       0.77863000       0.68689880
   152  C          0.38372000       0.27863000       0.81310120
   153  C          0.42843000       0.01627000       0.33572120
   154  C          0.57157000       0.51627000       0.16427880
   155  C          0.57157000      -0.01627000       0.66427880
   156  C          0.42843000       0.48373000       0.83572120
   157  H          0.45880000       0.89730000       0.31690000
   158  H          0.54120000       0.39730000       0.18310000
   159  H          0.54120000       0.10270000       0.68310000
   160  H          0.45880000       0.60270000       0.81690000
   161  C          0.42753000      -0.01058000       0.38670120
   162  C          0.57247000       0.48942000       0.11329880
   163  C          0.57247000       0.01058000       0.61329880
   164  C          0.42753000       0.51058000       0.88670120
   165  H          0.45890000       0.85110000       0.40120000
   166  H          0.54110000       0.35110000       0.09880000
   167  H          0.54110000       0.14890000       0.59880000
   168  H          0.45890000       0.64890000       0.90120000
   169  C          0.34303000       0.34568000       0.39410130
   170  C          0.65697000       0.84568000       0.10589870
   171  C          0.65697000       0.65432000       0.60589870
   172  C          0.34303000       0.15432000       0.89410130
   173  H          0.31310000       0.46130000       0.41380000
   174  H          0.68690000       0.96130000       0.08620000
   175  H          0.68690000       0.53870000       0.58620000
   176  H          0.31310000       0.03870000       0.91380000
   177  C          0.34092000       0.39088000       0.34370120
   178  C          0.65908000       0.89088000       0.15629880
   179  C          0.65908000       0.60912000       0.65629880
   180  C          0.34092000       0.10912000       0.84370120
   181  H          0.31090000       0.53410000       0.33040000
   182  H          0.68910000       0.03410000       0.16960000
   183  H          0.68910000       0.46590000       0.66960000
   184  H          0.31090000       0.96590000       0.83040000
   185  N          0.37992000       0.09566000       0.17815100
   186  N          0.62008000       0.59566000       0.32184900
   187  N          0.62008000       0.90434000       0.82184900
   188  N          0.37992000       0.40434000       0.67815100
   189  N          0.37832000       0.06966000       0.22946100
   190  N          0.62168000       0.56966000       0.27053900
   191  N          0.62168000       0.93034000       0.77053900
   192  N          0.37832000       0.43034000       0.72946100
   193  H          0.37610000       0.92120000       0.24240000
   194  H          0.62390000       0.42120000       0.25760000
   195  H          0.62390000       0.07880000       0.75760000
   196  H          0.37610000       0.57880000       0.74240000
   197  N          0.38512000       0.14737000       0.41636110
   198  N          0.61488000       0.64737000       0.08363890
   199  N          0.61488000       0.85263000       0.58363890
   200  N          0.38512000       0.35263000       0.91636110
