data_HOHRIF
_symmetry_space_group_name_H-M    'P1'
_symmetry_Int_Tables_number       1
loop_
_symmetry_equiv_pos_site_id
_symmetry_equiv_pos_as_xyz
1 x,y,z
_cell_length_a                   10.1612
_cell_length_b                   14.0803
_cell_length_c                   8.0652
_cell_angle_alpha                90.0
_cell_angle_beta                 114.36
_cell_angle_gamma                90.0
loop_
_atom_site_label
_atom_site_type_symbol
_atom_site_fract_x
_atom_site_fract_y
_atom_site_fract_z
     1  O          0.96662000       0.18292000       0.22002000
     2  O          0.96662000       0.81708000       0.72002000
     3  O          0.46662000       0.68292000       0.22002000
     4  O          0.46662000       0.31708000       0.72002000
     5  N          0.17012000       0.04322000       0.42962000
     6  N          0.17012000       0.95678000       0.92962000
     7  N          0.67012000       0.54322000       0.42962000
     8  N          0.67012000       0.45678000       0.92962000
     9  C          0.38031000       0.97687000       0.65902000
    10  C          0.38031000       0.02313000       0.15902000
    11  C          0.88031000       0.47687000       0.65902000
    12  C          0.88031000       0.52313000       0.15902000
    13  O          0.42412000       0.05212000       0.73881000
    14  O          0.42412000       0.94788000       0.23881000
    15  O          0.92412000       0.55212000       0.73881000
    16  O          0.92412000       0.44788000       0.23881000
    17  C          0.46752000       0.81738000       0.60251000
    18  C          0.46752000       0.18262000       0.10251000
    19  C          0.96752000       0.31738000       0.60251000
    20  C          0.96752000       0.68262000       0.10251000
    21  N          0.25581000       0.96637000       0.50951000
    22  N          0.25581000       0.03363000       0.00951000
    23  N          0.75581000       0.46637000       0.50951000
    24  N          0.75581000       0.53363000       0.00951000
    25  C          0.46421000       0.88647000       0.72301000
    26  C          0.46421000       0.11353000       0.22301000
    27  C          0.96421000       0.38647000       0.72301000
    28  C          0.96421000       0.61353000       0.22301000
    29  C          0.95241000       0.08953000       0.17642000
    30  C          0.95241000       0.91047000       0.67642000
    31  C          0.45241000       0.58953000       0.17642000
    32  C          0.45241000       0.41047000       0.67642000
    33  N          0.62342000       0.72008000       0.84882000
    34  N          0.62342000       0.27992000       0.34882000
    35  N          0.12342000       0.22008000       0.84882000
    36  N          0.12342000       0.77992000       0.34882000
    37  C          0.05892000       0.02212000       0.28592000
    38  C          0.05892000       0.97788000       0.78592000
    39  C          0.55892000       0.52212000       0.28592000
    40  C          0.55892000       0.47788000       0.78592000
    41  C          0.54551000       0.87247000       0.90671000
    42  C          0.54551000       0.12753000       0.40671000
    43  C          0.04551000       0.37247000       0.90671000
    44  C          0.04551000       0.62753000       0.40671000
    45  C          0.76111000       0.16443000       0.97458000
    46  C          0.76111000       0.83557000       0.47458000
    47  C          0.26111000       0.66443000       0.97458000
    48  C          0.26111000       0.33557000       0.47458000
    49  C          0.84711000       0.22693000       0.09212000
    50  C          0.84711000       0.77307000       0.59212000
    51  C          0.34711000       0.72693000       0.09212000
    52  C          0.34711000       0.27307000       0.59212000
    53  C          0.54891000       0.73567000       0.67251000
    54  C          0.54891000       0.26433000       0.17251000
    55  C          0.04891000       0.23567000       0.67251000
    56  C          0.04891000       0.76433000       0.17251000
    57  C          0.82831000       0.07452000       0.02722000
    58  C          0.82831000       0.92548000       0.52722000
    59  C          0.32831000       0.57452000       0.02722000
    60  C          0.32831000       0.42548000       0.52722000
    61  C          0.62132000       0.78888000       0.96262000
    62  C          0.62132000       0.21112000       0.46262000
    63  C          0.12132000       0.28888000       0.96262000
    64  C          0.12132000       0.71112000       0.46262000
    65  H          0.84310000       0.29610000       0.10910000
    66  H          0.84310000       0.70390000       0.60910000
    67  H          0.34310000       0.79610000       0.10910000
    68  H          0.34310000       0.20390000       0.60910000
    69  H          0.55610000       0.68780000       0.58420000
    70  H          0.55610000       0.31220000       0.08420000
    71  H          0.05610000       0.18780000       0.58420000
    72  H          0.05610000       0.81220000       0.08420000
    73  H          0.22610000       0.91380000       0.46810000
    74  H          0.22610000       0.08620000       0.96810000
    75  H          0.72610000       0.41380000       0.46810000
    76  H          0.72610000       0.58620000       0.96810000
    77  H          0.54310000       0.92780000      -0.00980000
    78  H          0.54310000       0.07220000       0.49020000
    79  H          0.04310000       0.42780000      -0.00980000
    80  H          0.04310000       0.57220000       0.49020000
    81  H          0.68210000       0.77690000       0.09510000
    82  H          0.68210000       0.22310000       0.59510000
    83  H          0.18210000       0.27690000       0.09510000
    84  H          0.18210000       0.72310000       0.59510000
    85  H          0.67020000       0.17810000       0.87380000
    86  H          0.67020000       0.82190000       0.37380000
    87  H          0.17020000       0.67810000       0.87380000
    88  H          0.17020000       0.32190000       0.37380000
    89  H          0.41220000       0.82190000       0.45820000
    90  H          0.41220000       0.17810000       0.95820000
    91  H          0.91220000       0.32190000       0.45820000
    92  H          0.91220000       0.67810000       0.95820000
    93  H          0.04520000       0.95680000       0.23510000
    94  H          0.04520000       0.04320000       0.73510000
    95  H          0.54520000       0.45680000       0.23510000
    96  H          0.54520000       0.54320000       0.73510000
    97  H          0.78710000       0.01210000       0.97080000
    98  H          0.78710000       0.98790000       0.47080000
    99  H          0.28710000       0.51210000       0.97080000
   100  H          0.28710000       0.48790000       0.47080000
