data_HOPHAL10
_symmetry_space_group_name_H-M    'P1'
_symmetry_Int_Tables_number       1
loop_
_symmetry_equiv_pos_site_id
_symmetry_equiv_pos_as_xyz
1 x,y,z
_cell_length_a                   8.44
_cell_length_b                   10.773
_cell_length_c                   5.215
_cell_angle_alpha                80.05
_cell_angle_beta                 116.17
_cell_angle_gamma                96.73
loop_
_atom_site_label
_atom_site_type_symbol
_atom_site_fract_x
_atom_site_fract_y
_atom_site_fract_z
     1  C          0.22000000       0.10010000       0.16820000
     2  C          0.78000000       0.89990000       0.83180000
     3  C          0.39910000       0.16310000       0.30360000
     4  C          0.60090000       0.83690000       0.69640000
     5  C          0.53900000       0.13570000       0.26370000
     6  C          0.46100000       0.86430000       0.73630000
     7  C          0.70300000       0.19310000       0.39090000
     8  C          0.29700000       0.80690000       0.60910000
     9  C          0.73170000       0.28190000       0.56060000
    10  C          0.26830000       0.71810000       0.43940000
    11  C          0.59270000       0.31040000       0.62490000
    12  C          0.40730000       0.68960000       0.37510000
    13  C          0.42000000       0.25620000       0.49040000
    14  C          0.58000000       0.74380000       0.50960000
    15  C          0.27680000       0.29520000       0.54080000
    16  C          0.72320000       0.70480000       0.45920000
    17  C          0.14780000       0.38320000       0.29040000
    18  C          0.85220000       0.61680000       0.70960000
    19  H          0.51800000       0.06700000       0.12100000
    20  H          0.48200000       0.93300000       0.87900000
    21  H          0.81100000       0.16900000       0.35200000
    22  H          0.18900000       0.83100000       0.64800000
    23  H          0.86100000       0.32800000       0.66000000
    24  H          0.13900000       0.67200000       0.34000000
    25  H          0.61400000       0.37900000       0.76400000
    26  H          0.38600000       0.62100000       0.23600000
    27  H          0.29900000       0.34400000       0.72200000
    28  H          0.70100000       0.65600000       0.27800000
    29  H          0.23300000       0.23300000       0.68500000
    30  H          0.76700000       0.76700000       0.31500000
    31  H          0.09200000       0.97000000       0.91200000
    32  H          0.90800000       0.03000000       0.08800000
    33  H          0.05900000       0.46600000       0.83300000
    34  H          0.94100000       0.53400000       0.16700000
    35  O          0.21180000       0.02300000      -0.00780000
    36  O          0.78820000       0.97700000       0.00780000
    37  O          0.09120000       0.11170000       0.20590000
    38  O          0.90880000       0.88830000       0.79410000
    39  O          0.01650000       0.40720000       0.32750000
    40  O         -0.01650000       0.59280000       0.67250000
    41  O          0.17570000       0.42300000       0.07850000
    42  O          0.82430000       0.57700000       0.92150000
