data_HOPHAL12
_symmetry_space_group_name_H-M    'P1'
_symmetry_Int_Tables_number       1
loop_
_symmetry_equiv_pos_site_id
_symmetry_equiv_pos_as_xyz
1 x,y,z
_cell_length_a                   5.0431313
_cell_length_b                   8.74532
_cell_length_c                   10.28362
_cell_angle_alpha                102.1012
_cell_angle_beta                 99.5732
_cell_angle_gamma                94.7072
loop_
_atom_site_label
_atom_site_type_symbol
_atom_site_fract_x
_atom_site_fract_y
_atom_site_fract_z
     1  O          0.39568180       0.16669110       0.95413100
     2  O          0.60431820       0.83330890       0.04586900
     3  O          0.19912000       0.91914890       0.88675110
     4  O          0.80088000       0.08085110       0.11324890
     5  H          0.33336900       0.90448500       0.93750700
     6  H          0.66663100       0.09551500       0.06249300
     7  O          0.33142000       0.03806120       0.62171100
     8  O          0.66858000       0.96193880       0.37828900
     9  O          0.43102000       0.20249130       0.49433100
    10  O          0.56898000       0.79750870       0.50566900
    11  H          0.50774400       0.12900300       0.46109300
    12  H          0.49225600       0.87099700       0.53890700
    13  C          0.02472000       0.26636150       0.75895120
    14  C         -0.02472000       0.73363850       0.24104880
    15  C          0.90367000       0.39213180       0.82133140
    16  C          0.09633000       0.60786820       0.17866860
    17  H          0.79643300       0.37677300       0.88388800
    18  H          0.20356700       0.62322700       0.11611200
    19  C          0.93867000       0.53876180       0.79287150
    20  C          0.06133000       0.46123820       0.20712850
    21  H          0.85593000       0.62067200       0.83642400
    22  H          0.14407000       0.37932800       0.16357600
    23  C          0.09544000       0.56459180       0.70042160
    24  C          0.90456000       0.43540820       0.29957840
    25  H          0.12022100       0.66374200       0.68169100
    26  H          0.87977900       0.33625800       0.31830900
    27  C          0.21583000       0.44154170       0.63560140
    28  C          0.78417000       0.55845830       0.36439860
    29  H          0.31989100       0.45825300       0.57210700
    30  H          0.68010900       0.54174700       0.42789300
    31  C          0.18343000       0.29307150       0.66389120
    32  C          0.81657000       0.70692850       0.33610880
    33  C         -0.02382000       0.10970160       0.79532130
    34  C          0.02382000       0.89029840       0.20467870
    35  H          0.82199400       0.11091000       0.84052800
    36  H          0.17800600       0.88909000       0.15947200
    37  H          0.92842200       0.02846500       0.71229400
    38  H          0.07157800       0.97153500       0.28770600
    39  C          0.21072000       0.06561140       0.88447120
    40  C          0.78928000       0.93438860       0.11552880
    41  C          0.31983000       0.16588160       0.59267120
    42  C          0.68017000       0.83411840       0.40732880
