data_HOPHAL11
_symmetry_space_group_name_H-M    'P1'
_symmetry_Int_Tables_number       1
loop_
_symmetry_equiv_pos_site_id
_symmetry_equiv_pos_as_xyz
1 x,y,z
_cell_length_a                   5.249012
_cell_length_b                   7.634519
_cell_length_c                   10.7583
_cell_angle_alpha                90.622
_cell_angle_beta                 100.43819
_cell_angle_gamma                100.84519
loop_
_atom_site_label
_atom_site_type_symbol
_atom_site_fract_x
_atom_site_fract_y
_atom_site_fract_z
     1  O          0.59425000       0.17743000       0.92223000
     2  O          0.40575000       0.82257000       0.07777000
     3  O          0.18245000       0.02134000       0.90603000
     4  O          0.81755000       0.97866000       0.09397000
     5  H          0.25512000       0.94220000       0.97370000
     6  H          0.74488000       0.05780000       0.02630000
     7  O          0.38425000       0.09443000       0.61043000
     8  O          0.61575000       0.90557000       0.38957000
     9  O          0.72505000       0.21734000       0.52223000
    10  O          0.27495000       0.78266000       0.47777000
    11  H          0.68611000       0.09790000       0.47370000
    12  H          0.31389000       0.90210000       0.52630000
    13  C          0.43166000       0.43125000       0.75314000
    14  C          0.56834000       0.56875000       0.24686000
    15  C          0.58687000       0.40165000       0.66404000
    16  C          0.41313000       0.59835000       0.33596000
    17  C          0.77647000       0.54225000       0.63594000
    18  C          0.22353000       0.45775000       0.36406000
    19  H          0.88310000       0.52190000       0.57670000
    20  H          0.11690000       0.47810000       0.42330000
    21  C          0.81197000       0.71115000       0.69284000
    22  C          0.18803000       0.28885000       0.30716000
    23  H          0.94250000       0.80530000       0.67310000
    24  H          0.05750000       0.19470000       0.32690000
    25  C          0.65658000       0.74155000       0.77824000
    26  C          0.34342000       0.25845000       0.22176000
    27  H          0.67780000       0.85710000       0.81700000
    28  H          0.32220000       0.14290000       0.18300000
    29  C          0.46827000       0.60165000       0.80734000
    30  C          0.53173000       0.39835000       0.19266000
    31  H          0.36160000       0.62370000       0.86610000
    32  H          0.63840000       0.37630000       0.13390000
    33  C          0.23157000       0.28545000       0.79754000
    34  C          0.76843000       0.71455000       0.20246000
    35  H          0.12090000       0.34170000       0.84510000
    36  H          0.87910000       0.65830000       0.15490000
    37  H          0.11400000       0.21900000       0.72260000
    38  H          0.88600000       0.78100000       0.27740000
    39  C          0.35767000       0.15655000       0.87984000
    40  C          0.64233000       0.84345000       0.12016000
    41  C          0.55467000       0.22455000       0.59884000
    42  C          0.44533000       0.77545000       0.40116000
