data_HXACAN
_symmetry_space_group_name_H-M    'P1'
_symmetry_Int_Tables_number       1
loop_
_symmetry_equiv_pos_site_id
_symmetry_equiv_pos_as_xyz
1 x,y,z
_cell_length_a                   11.8055
_cell_length_b                   17.1642
_cell_length_c                   7.3932
_cell_angle_alpha                90.0
_cell_angle_beta                 90.0
_cell_angle_gamma                90.0
loop_
_atom_site_label
_atom_site_type_symbol
_atom_site_fract_x
_atom_site_fract_y
_atom_site_fract_z
     1  C          0.44620000       0.33870000       0.29100000
     2  C          0.55380000       0.16130000       0.79100000
     3  C          0.94620000       0.66130000       0.20900000
     4  C          0.05380000       0.83870000       0.70900000
     5  C          0.55380000       0.66130000       0.70900000
     6  C          0.44620000       0.83870000       0.20900000
     7  C          0.05380000       0.33870000       0.79100000
     8  C          0.94620000       0.16130000       0.29100000
     9  C          0.33910000       0.33730000       0.21220000
    10  C          0.66090000       0.16270000       0.71220000
    11  C          0.83910000       0.66270000       0.28780000
    12  C          0.16090000       0.83730000       0.78780000
    13  C          0.66090000       0.66270000       0.78780000
    14  C          0.33910000       0.83730000       0.28780000
    15  C          0.16090000       0.33730000       0.71220000
    16  C          0.83910000       0.16270000       0.21220000
    17  C          0.27910000       0.26800000       0.20730000
    18  C          0.72090000       0.23200000       0.70730000
    19  C          0.77910000       0.73200000       0.29270000
    20  C          0.22090000       0.76800000       0.79270000
    21  C          0.72090000       0.73200000       0.79270000
    22  C          0.27910000       0.76800000       0.29270000
    23  C          0.22090000       0.26800000       0.70730000
    24  C          0.77910000       0.23200000       0.20730000
    25  C          0.32410000       0.20080000       0.28070000
    26  C          0.67590000       0.29920000       0.78070000
    27  C          0.82410000       0.79920000       0.21930000
    28  C          0.17590000       0.70080000       0.71930000
    29  C          0.67590000       0.79920000       0.71930000
    30  C          0.32410000       0.70080000       0.21930000
    31  C          0.17590000       0.20080000       0.78070000
    32  C          0.82410000       0.29920000       0.28070000
    33  C          0.42810000       0.20260000       0.36550000
    34  C          0.57190000       0.29740000       0.86550000
    35  C          0.92810000       0.79740000       0.13450000
    36  C          0.07190000       0.70260000       0.63450000
    37  C          0.57190000       0.79740000       0.63450000
    38  C          0.42810000       0.70260000       0.13450000
    39  C          0.07190000       0.20260000       0.86550000
    40  C          0.92810000       0.29740000       0.36550000
    41  C          0.48940000       0.27180000       0.37000000
    42  C          0.51060000       0.22820000       0.87000000
    43  C         -0.01060000       0.72820000       0.13000000
    44  C          0.01060000       0.77180000       0.63000000
    45  C          0.51060000       0.72820000       0.63000000
    46  C          0.48940000       0.77180000       0.13000000
    47  C          0.01060000       0.27180000       0.87000000
    48  C         -0.01060000       0.22820000       0.37000000
    49  C          0.49300000       0.48050000       0.26150000
    50  C          0.50700000       0.01950000       0.76150000
    51  C         -0.00700000       0.51950000       0.23850000
    52  C          0.00700000       0.98050000       0.73850000
    53  C          0.50700000       0.51950000       0.73850000
    54  C          0.49300000       0.98050000       0.23850000
    55  C          0.00700000       0.48050000       0.76150000
    56  C         -0.00700000       0.01950000       0.26150000
    57  C          0.59330000       0.53500000       0.26940000
    58  C          0.40670000       0.96500000       0.76940000
    59  C          0.09330000       0.46500000       0.23060000
    60  C          0.90670000       0.03500000       0.73060000
    61  C          0.40670000       0.46500000       0.73060000
    62  C          0.59330000       0.03500000       0.23060000
    63  C          0.90670000       0.53500000       0.76940000
    64  C          0.09330000       0.96500000       0.26940000
    65  H          0.30900000       0.38400000       0.16300000
    66  H          0.69100000       0.11600000       0.66300000
    67  H          0.80900000       0.61600000       0.33700000
    68  H          0.19100000       0.88400000       0.83700000
    69  H          0.69100000       0.61600000       0.83700000
    70  H          0.30900000       0.88400000       0.33700000
    71  H          0.19100000       0.38400000       0.66300000
    72  H          0.80900000       0.11600000       0.16300000
    73  H          0.20700000       0.26600000       0.15400000
    74  H          0.79300000       0.23400000       0.65400000
    75  H          0.70700000       0.73400000       0.34600000
    76  H          0.29300000       0.76600000       0.84600000
    77  H          0.79300000       0.73400000       0.84600000
    78  H          0.20700000       0.76600000       0.34600000
    79  H          0.29300000       0.26600000       0.65400000
    80  H          0.70700000       0.23400000       0.15400000
    81  H          0.45400000       0.15500000       0.42000000
    82  H          0.54600000       0.34500000       0.92000000
    83  H          0.95400000       0.84500000       0.08000000
    84  H          0.04600000       0.65500000       0.58000000
    85  H          0.54600000       0.84500000       0.58000000
    86  H          0.45400000       0.65500000       0.08000000
    87  H          0.04600000       0.15500000       0.92000000
    88  H          0.95400000       0.34500000       0.42000000
    89  H          0.55900000       0.27100000       0.43300000
    90  H          0.44100000       0.22900000       0.93300000
    91  H          0.05900000       0.72900000       0.06700000
    92  H          0.94100000       0.77100000       0.56700000
    93  H          0.44100000       0.72900000       0.56700000
    94  H          0.55900000       0.77100000       0.06700000
    95  H          0.94100000       0.27100000       0.93300000
    96  H          0.05900000       0.22900000       0.43300000
    97  H          0.30600000       0.09500000       0.27900000
    98  H          0.69400000       0.40500000       0.77900000
    99  H          0.80600000       0.90500000       0.22100000
   100  H          0.19400000       0.59500000       0.72100000
   101  H          0.69400000       0.90500000       0.72100000
   102  H          0.30600000       0.59500000       0.22100000
   103  H          0.19400000       0.09500000       0.77900000
   104  H          0.80600000       0.40500000       0.27900000
   105  H          0.58200000       0.39500000       0.31400000
   106  H          0.41800000       0.10500000       0.81400000
   107  H          0.08200000       0.60500000       0.18600000
   108  H          0.91800000       0.89500000       0.68600000
   109  H          0.41800000       0.60500000       0.68600000
   110  H          0.58200000       0.89500000       0.18600000
   111  H          0.91800000       0.39500000       0.81400000
   112  H          0.08200000       0.10500000       0.31400000
   113  H          0.65000000       0.51800000       0.34600000
   114  H          0.35000000       0.98200000       0.84600000
   115  H          0.15000000       0.48200000       0.15400000
   116  H          0.85000000       0.01800000       0.65400000
   117  H          0.35000000       0.48200000       0.65400000
   118  H          0.65000000       0.01800000       0.15400000
   119  H          0.85000000       0.51800000       0.84600000
   120  H          0.15000000       0.98200000       0.34600000
   121  H          0.57100000       0.58300000       0.28900000
   122  H          0.42900000       0.91700000       0.78900000
   123  H          0.07100000       0.41700000       0.21100000
   124  H          0.92900000       0.08300000       0.71100000
   125  H          0.42900000       0.41700000       0.71100000
   126  H          0.57100000       0.08300000       0.21100000
   127  H          0.92900000       0.58300000       0.78900000
   128  H          0.07100000       0.91700000       0.28900000
   129  H          0.62900000       0.53400000       0.15200000
   130  H          0.37100000       0.96600000       0.65200000
   131  H          0.12900000       0.46600000       0.34800000
   132  H          0.87100000       0.03400000       0.84800000
   133  H          0.37100000       0.46600000       0.84800000
   134  H          0.62900000       0.03400000       0.34800000
   135  H          0.87100000       0.53400000       0.65200000
   136  H          0.12900000       0.96600000       0.15200000
   137  N          0.51810000       0.40530000       0.29120000
   138  N          0.48190000       0.09470000       0.79120000
   139  N          0.01810000       0.59470000       0.20880000
   140  N          0.98190000       0.90530000       0.70880000
   141  N          0.48190000       0.59470000       0.70880000
   142  N          0.51810000       0.90530000       0.20880000
   143  N          0.98190000       0.40530000       0.79120000
   144  N          0.01810000       0.09470000       0.29120000
   145  O          0.26300000       0.13240000       0.26880000
   146  O          0.73700000       0.36760000       0.76880000
   147  O          0.76300000       0.86760000       0.23120000
   148  O          0.23700000       0.63240000       0.73120000
   149  O          0.73700000       0.86760000       0.73120000
   150  O          0.26300000       0.63240000       0.23120000
   151  O          0.23700000       0.13240000       0.76880000
   152  O          0.76300000       0.36760000       0.26880000
   153  O          0.39690000       0.50300000       0.22880000
   154  O          0.60310000      -0.00300000       0.72880000
   155  O          0.89690000       0.49700000       0.27120000
   156  O          0.10310000       0.00300000       0.77120000
   157  O          0.60310000       0.49700000       0.77120000
   158  O          0.39690000       0.00300000       0.27120000
   159  O          0.10310000       0.50300000       0.72880000
   160  O          0.89690000      -0.00300000       0.22880000
