data_HXACAN12
_symmetry_space_group_name_H-M    'P1'
_symmetry_Int_Tables_number       1
loop_
_symmetry_equiv_pos_site_id
_symmetry_equiv_pos_as_xyz
1 x,y,z
_cell_length_a                   6.62501
_cell_length_b                   7.9852
_cell_length_c                   11.9162
_cell_angle_alpha                90.0
_cell_angle_beta                 99.413
_cell_angle_gamma                90.0
loop_
_atom_site_label
_atom_site_type_symbol
_atom_site_fract_x
_atom_site_fract_y
_atom_site_fract_z
     1  O          0.14475000       0.97502000       0.22052000
     2  O          0.35525000       0.47502000       0.27948000
     3  O          0.85525000       0.02498000       0.77948000
     4  O          0.64475000       0.52498000       0.72052000
     5  H          0.04250000       0.01340000       0.24330000
     6  H          0.45750000       0.51340000       0.25670000
     7  H          0.95750000      -0.01340000       0.75670000
     8  H          0.54250000       0.48660000       0.74330000
     9  C          0.11488000       0.86693000       0.12923000
    10  C          0.38512000       0.36693000       0.37077000
    11  C          0.88512000       0.13307000       0.87077000
    12  C          0.61488000       0.63307000       0.62923000
    13  C          0.92143000       0.84443000       0.06482000
    14  C          0.57857000       0.34443000       0.43518000
    15  C          0.07857000       0.15557000       0.93518000
    16  C          0.42143000       0.65557000       0.56482000
    17  H          0.80960000       0.89820000       0.08337000
    18  H          0.69040000       0.39820000       0.41663000
    19  H          0.19040000       0.10180000       0.91663000
    20  H          0.30960000       0.60180000       0.58337000
    21  C          0.90322000       0.73773000       0.97187000
    22  C          0.59678000       0.23773000       0.52813000
    23  C          0.09678000       0.26227000       0.02813000
    24  C          0.40322000       0.76227000       0.47187000
    25  H          0.77160000       0.72175000       0.92598800
    26  H          0.72840000       0.22175000       0.57401200
    27  H          0.22840000       0.27825000       0.07401200
    28  H          0.27160000       0.77825000       0.42598800
    29  C          0.06848000       0.65543000       0.94477000
    30  C          0.43152000       0.15543000       0.55523000
    31  C          0.93152000       0.34457000       0.05523000
    32  C          0.56848000       0.84457000       0.44477000
    33  C          0.26126000       0.67222000       0.01242000
    34  C          0.23874000       0.17222000       0.48758000
    35  C          0.73874000       0.32778000       0.98758000
    36  C          0.76126000       0.82778000       0.51242000
    37  H          0.37540000       0.61420000      -0.00477000
    38  H          0.12460000       0.11420000       0.50477000
    39  H          0.62460000       0.38580000       0.00477000
    40  H          0.87540000       0.88580000       0.49523000
    41  C          0.27767000       0.77833000       0.10573000
    42  C          0.22233000       0.27833000       0.39427000
    43  C          0.72233000       0.22167000       0.89427000
    44  C          0.77767000       0.72167000       0.60573000
    45  H          0.40540000       0.78914000       0.15411300
    46  H          0.09460000       0.28914000       0.34588700
    47  H          0.59460000       0.21086000       0.84588700
    48  H          0.90540000       0.71086000       0.65411300
    49  N          0.03447000       0.55333000       0.84538000
    50  N          0.46553000       0.05333000       0.65462000
    51  N          0.96553000       0.44667000       0.15462000
    52  N          0.53447000       0.94667000       0.34538000
    53  H          0.87440000       0.54330000       0.82070000
    54  H          0.62560000       0.04330000       0.67930000
    55  H          0.12560000       0.45670000       0.17930000
    56  H          0.37440000       0.95670000       0.32070000
    57  C          0.16739000       0.46863000       0.79587000
    58  C          0.33261000       0.96863000       0.70413000
    59  C          0.83261000       0.53137000       0.20413000
    60  C          0.66739000       0.03137000       0.29587000
    61  O          0.35346000       0.46722000       0.83078000
    62  O          0.14654000       0.96722000       0.66922000
    63  O          0.64654000       0.53278000       0.16922000
    64  O          0.85346000       0.03278000       0.33078000
    65  C          0.08128000       0.37303000       0.69087000
    66  C          0.41872000       0.87303000       0.80913000
    67  C          0.91872000       0.62697000       0.30913000
    68  C          0.58128000       0.12697000       0.19087000
    69  H          0.13430000       0.41720000       0.62798800
    70  H          0.36570000       0.91720000       0.87201200
    71  H          0.86570000       0.58280000       0.37201200
    72  H          0.63430000       0.08280000       0.12798800
    73  H          0.93680000       0.38320000       0.67769000
    74  H          0.56320000       0.88320000       0.82231000
    75  H          0.06320000       0.61680000       0.32231000
    76  H          0.43680000       0.11680000       0.17769000
    77  H          0.11840000       0.25920000       0.70061000
    78  H          0.38160000       0.75920000       0.79939000
    79  H          0.88160000       0.74080000       0.29939000
    80  H          0.61840000       0.24080000       0.20061000
