data_HXACAN01
_symmetry_space_group_name_H-M    'P1'
_symmetry_Int_Tables_number       1
loop_
_symmetry_equiv_pos_site_id
_symmetry_equiv_pos_as_xyz
1 x,y,z
_cell_length_a                   12.934
_cell_length_b                   9.401
_cell_length_c                   7.102
_cell_angle_alpha                90.0
_cell_angle_beta                 115.92
_cell_angle_gamma                90.0
loop_
_atom_site_label
_atom_site_type_symbol
_atom_site_fract_x
_atom_site_fract_y
_atom_site_fract_z
     1  C          0.93890000       0.35470000       0.84810000
     2  C          0.56110000       0.85470000       0.15190000
     3  C          0.06110000       0.64530000       0.15190000
     4  C          0.43890000       0.14530000       0.84810000
     5  C          0.01420000       0.35620000       0.75580000
     6  C          0.48580000       0.85620000       0.24420000
     7  C         -0.01420000       0.64380000       0.24420000
     8  C          0.51420000       0.14380000       0.75580000
     9  C          0.10890000       0.26560000       0.82790000
    10  C          0.39110000       0.76560000       0.17210000
    11  C          0.89110000       0.73440000       0.17210000
    12  C          0.60890000       0.23440000       0.82790000
    13  C          0.12900000       0.17400000      -0.00690000
    14  C          0.37100000       0.67400000       0.00690000
    15  C          0.87100000       0.82600000       0.00690000
    16  C          0.62900000       0.32600000      -0.00690000
    17  C          0.05510000       0.17440000       0.08870000
    18  C          0.44490000       0.67440000       0.91130000
    19  C          0.94490000       0.82560000       0.91130000
    20  C          0.55510000       0.32560000       0.08870000
    21  C          0.96130000       0.26410000       0.01600000
    22  C          0.53870000       0.76410000      -0.01600000
    23  C          0.03870000       0.73590000      -0.01600000
    24  C          0.46130000       0.23590000       0.01600000
    25  C          0.78040000       0.50670000       0.59970000
    26  C          0.71960000       0.00670000       0.40030000
    27  C          0.21960000       0.49330000       0.40030000
    28  C          0.28040000      -0.00670000       0.59970000
    29  C          0.67670000       0.58960000       0.58240000
    30  C          0.82330000       0.08960000       0.41760000
    31  C          0.32330000       0.41040000       0.41760000
    32  C          0.17670000       0.91040000       0.58240000
    33  H          0.00100000       0.42100000       0.64900000
    34  H          0.49900000       0.92100000       0.35100000
    35  H         -0.00100000       0.57900000       0.35100000
    36  H          0.50100000       0.07900000       0.64900000
    37  H          0.16500000       0.27200000       0.77000000
    38  H          0.33500000       0.77200000       0.23000000
    39  H          0.83500000       0.72800000       0.23000000
    40  H          0.66500000       0.22800000       0.77000000
    41  H          0.07000000       0.11300000       0.20400000
    42  H          0.43000000       0.61300000       0.79600000
    43  H          0.93000000       0.88700000       0.79600000
    44  H          0.57000000       0.38700000       0.20400000
    45  H          0.90900000       0.26400000       0.07900000
    46  H          0.59100000       0.76400000       0.92100000
    47  H          0.09100000       0.73600000       0.92100000
    48  H          0.40900000       0.23600000       0.07900000
    49  H          0.23900000       0.05500000       0.18400000
    50  H          0.26100000       0.55500000       0.81600000
    51  H          0.76100000       0.94500000       0.81600000
    52  H          0.73900000       0.44500000       0.18400000
    53  H          0.80700000       0.45100000       0.87400000
    54  H          0.69300000       0.95100000       0.12600000
    55  H          0.19300000       0.54900000       0.12600000
    56  H          0.30700000       0.04900000       0.87400000
    57  H          0.61800000       0.58300000       0.44400000
    58  H          0.88200000       0.08300000       0.55600000
    59  H          0.38200000       0.41700000       0.55600000
    60  H          0.11800000       0.91700000       0.44400000
    61  H          0.67200000       0.59300000       0.70200000
    62  H          0.82800000       0.09300000       0.29800000
    63  H          0.32800000       0.40700000       0.29800000
    64  H          0.17200000       0.90700000       0.70200000
    65  H          0.69400000       0.70100000       0.57800000
    66  H          0.80600000       0.20100000       0.42200000
    67  H          0.30600000       0.29900000       0.42200000
    68  H          0.19400000       0.79900000       0.57800000
    69  N          0.84010000       0.44360000       0.78550000
    70  N          0.65990000       0.94360000       0.21450000
    71  N          0.15990000       0.55640000       0.21450000
    72  N          0.34010000       0.05640000       0.78550000
    73  O          0.22280000       0.08510000       0.05600000
    74  O          0.27720000       0.58510000       0.94400000
    75  O          0.77720000       0.91490000       0.94400000
    76  O          0.72280000       0.41490000       0.05600000
    77  O          0.80770000       0.49770000       0.45420000
    78  O          0.69230000      -0.00230000       0.54580000
    79  O          0.19230000       0.50230000       0.54580000
    80  O          0.30770000       0.00230000       0.45420000
