data_HXQUIN15
_symmetry_space_group_name_H-M    'P1'
_symmetry_Int_Tables_number       1
loop_
_symmetry_equiv_pos_site_id
_symmetry_equiv_pos_as_xyz
1 x,y,z
_cell_length_a                   6.57755
_cell_length_b                   7.82856
_cell_length_c                   14.461713
_cell_angle_alpha                96.0992
_cell_angle_beta                 92.47001
_cell_angle_gamma                106.1713
loop_
_atom_site_label
_atom_site_type_symbol
_atom_site_fract_x
_atom_site_fract_y
_atom_site_fract_z
     1  N          0.36018000       0.63208000       0.57434000
     2  N          0.63982000       0.36792000       0.42566000
     3  O          0.27547000       0.26636000       0.53224000
     4  O          0.72453000       0.73364000       0.46776000
     5  H          0.37720000       0.34770000       0.52140000
     6  H          0.62280000       0.65230000       0.47860000
     7  C          0.39531200       0.80611000       0.59505000
     8  C          0.60468800       0.19389000       0.40495000
     9  H          0.52280000       0.88120000       0.57990000
    10  H          0.47720000       0.11880000       0.42010000
    11  C          0.25211200       0.88461100       0.63855000
    12  C          0.74788800       0.11538900       0.36145000
    13  H          0.28240000       0.00870000       0.64910000
    14  H          0.71760000      -0.00870000       0.35090000
    15  C          0.07371100       0.78181100       0.66435000
    16  C          0.92628900       0.21818900       0.33565000
    17  H         -0.01910000       0.83410000       0.69530000
    18  H          0.01910000       0.16590000       0.30470000
    19  C          0.02131000       0.59159000       0.64554000
    20  C         -0.02131000       0.40841000       0.35446000
    21  C          0.17319000       0.52549000       0.59914000
    22  C          0.82681000       0.47451000       0.40086000
    23  C          0.13261000       0.33721000       0.57784000
    24  C          0.86739000       0.66279000       0.42216000
    25  C          0.95379000       0.22821000       0.60165000
    26  C          0.04621000       0.77179000       0.39835000
    27  H          0.92840000       0.10500000       0.58770000
    28  H          0.07160000       0.89500000       0.41230000
    29  C          0.80418900       0.29391000       0.64685000
    30  C          0.19581100       0.70609000       0.35315000
    31  H          0.68190000       0.21340000       0.66310000
    32  H          0.31810000       0.78660000       0.33690000
    33  C          0.83139000       0.47251000       0.66795000
    34  C          0.16861000       0.52749000       0.33205000
    35  H          0.72770000       0.51490000       0.69630000
    36  H          0.27230000       0.48510000       0.30370000
    37  N          0.16808000       0.40608000       0.07374000
    38  N          0.83192000       0.59392000       0.92626000
    39  O          0.23547000       0.74826000       0.03274000
    40  O          0.76453000       0.25174000       0.96726000
    41  H          0.12950000       0.66170000       0.02300000
    42  H          0.87050000       0.33830000       0.97700000
    43  C          0.13911100       0.23951000       0.09365000
    44  C          0.86088900       0.76049000       0.90635000
    45  H          0.00730000       0.15680000       0.07700000
    46  H         -0.00730000       0.84320000       0.92300000
    47  C          0.29651100       0.18201000       0.13835000
    48  C          0.70348900       0.81799000       0.86165000
    49  H          0.26830000       0.06400000       0.15110000
    50  H          0.73170000       0.93600000       0.84890000
    51  C          0.49081100       0.29971000       0.16315000
    52  C          0.50918900       0.70029000       0.83685000
    53  H          0.59770000       0.26320000       0.19210000
    54  H          0.40230000       0.73680000       0.80790000
    55  C          0.52751000       0.47839000       0.14394000
    56  C          0.47249000       0.52161000       0.85606000
    57  C          0.36229000       0.52509000       0.09864000
    58  C          0.63771000       0.47491000       0.90136000
    59  C          0.39351100       0.70121000       0.07945000
    60  C          0.60648900       0.29879000       0.92055000
    61  C          0.58431100       0.82779000       0.10255000
    62  C          0.41568900       0.17221000       0.89745000
    63  H          0.60500000       0.94430000       0.08850000
    64  H          0.39500000       0.05570000       0.91150000
    65  C          0.74681100       0.77851100       0.14735000
    66  C          0.25318900       0.22148900       0.85265000
    67  H          0.87640000       0.86460000       0.16340000
    68  H          0.12360000       0.13540000       0.83660000
    69  C          0.72311100       0.60851100       0.16855000
    70  C          0.27688900       0.39148900       0.83145000
    71  H          0.83450000       0.57950000       0.19870000
    72  H          0.16550000       0.42050000       0.80130000
