data_HXQUIN03
_symmetry_space_group_name_H-M    'P1'
_symmetry_Int_Tables_number       1
loop_
_symmetry_equiv_pos_site_id
_symmetry_equiv_pos_as_xyz
1 x,y,z
_cell_length_a                   28.7707
_cell_length_b                   25.05512
_cell_length_c                   3.8575
_cell_angle_alpha                90.0
_cell_angle_beta                 90.0
_cell_angle_gamma                90.0
loop_
_atom_site_label
_atom_site_type_symbol
_atom_site_fract_x
_atom_site_fract_y
_atom_site_fract_z
     1  O          0.21821000       0.31655900       0.50110000
     2  O          0.21821000       0.81655900       0.00110000
     3  O          0.71821000       0.31655900       0.00110000
     4  O          0.71821000       0.81655900       0.50110000
     5  O          0.03179000       0.56655900       0.75110000
     6  O          0.03179000       0.06655900       0.25110000
     7  O          0.53179000       0.56655900       0.25110000
     8  O          0.53179000       0.06655900       0.75110000
     9  O          0.46821000       0.93344100       0.75110000
    10  O          0.46821000       0.43344100       0.25110000
    11  O          0.96821000       0.93344100       0.25110000
    12  O          0.96821000       0.43344100       0.75110000
    13  O          0.28179000       0.68344100       0.00110000
    14  O          0.28179000       0.18344100       0.50110000
    15  O          0.78179000       0.68344100       0.50110000
    16  O          0.78179000       0.18344100       0.00110000
    17  N          0.29971000       0.28371000       0.20010000
    18  N          0.29971000       0.78371000       0.70010000
    19  N          0.79971000       0.28371000       0.70010000
    20  N          0.79971000       0.78371000       0.20010000
    21  N          0.95029000       0.53371000       0.45010000
    22  N          0.95029000       0.03371000       0.95010000
    23  N          0.45029000       0.53371000       0.95010000
    24  N          0.45029000       0.03371000       0.45010000
    25  N          0.54971000       0.96629000       0.45010000
    26  N          0.54971000       0.46629000       0.95010000
    27  N          0.04971000       0.96629000       0.95010000
    28  N          0.04971000       0.46629000       0.45010000
    29  N          0.20029000       0.71629000       0.70010000
    30  N          0.20029000       0.21629000       0.20010000
    31  N          0.70029000       0.71629000       0.20010000
    32  N          0.70029000       0.21629000       0.70010000
    33  C          0.33921000       0.26952000       0.04610000
    34  C          0.33921000       0.76952000       0.54610000
    35  C          0.83921000       0.26952000       0.54610000
    36  C          0.83921000       0.76952000       0.04610000
    37  C          0.91079000       0.51952000       0.29610000
    38  C          0.91079000       0.01952000       0.79610000
    39  C          0.41079000       0.51952000       0.79610000
    40  C          0.41079000       0.01952000       0.29610000
    41  C          0.58921000       0.98048000       0.29610000
    42  C          0.58921000       0.48048000       0.79610000
    43  C          0.08921000       0.98048000       0.79610000
    44  C          0.08921000       0.48048000       0.29610000
    45  C          0.16079000       0.73048000       0.54610000
    46  C          0.16079000       0.23048000       0.04610000
    47  C          0.66079000       0.73048000       0.04610000
    48  C          0.66079000       0.23048000       0.54610000
    49  C          0.37471000       0.30502000      -0.03420000
    50  C          0.37471000       0.80502000       0.46580000
    51  C          0.87471000       0.30502000       0.46580000
    52  C          0.87471000       0.80502000      -0.03420000
    53  C          0.87529000       0.55502000       0.21580000
    54  C          0.87529000       0.05502000       0.71580000
    55  C          0.37529000       0.55502000       0.71580000
    56  C          0.37529000       0.05502000       0.21580000
    57  C          0.62471000       0.94498000       0.21580000
    58  C          0.62471000       0.44498000       0.71580000
    59  C          0.12471000       0.94498000       0.71580000
    60  C          0.12471000       0.44498000       0.21580000
    61  C          0.12529000       0.69498000       0.46580000
    62  C          0.12529000       0.19498000      -0.03420000
    63  C          0.62529000       0.69498000      -0.03420000
    64  C          0.62529000       0.19498000       0.46580000
    65  C          0.36992000       0.35752000       0.04520000
    66  C          0.36992000       0.85752000       0.54520000
    67  C          0.86992000       0.35752000       0.54520000
    68  C          0.86992000       0.85752000       0.04520000
    69  C          0.88008000       0.60752000       0.29520000
    70  C          0.88008000       0.10752000       0.79520000
    71  C          0.38008000       0.60752000       0.79520000
    72  C          0.38008000       0.10752000       0.29520000
    73  C          0.61992000       0.89248000       0.29520000
    74  C          0.61992000       0.39248000       0.79520000
    75  C          0.11992000       0.89248000       0.79520000
    76  C          0.11992000       0.39248000       0.29520000
    77  C          0.13008000       0.64248000       0.54520000
    78  C          0.13008000       0.14248000       0.04520000
    79  C          0.63008000       0.64248000       0.04520000
    80  C          0.63008000       0.14248000       0.54520000
    81  C          0.32152000       0.42891000       0.30310000
    82  C          0.32152000       0.92891000       0.80310000
    83  C          0.82152000       0.42891000       0.80310000
    84  C          0.82152000       0.92891000       0.30310000
    85  C          0.92848000       0.67891000       0.55310000
    86  C          0.92848000       0.17891000       0.05310000
    87  C          0.42848000       0.67891000       0.05310000
    88  C          0.42848000       0.17891000       0.55310000
    89  C          0.57152000       0.82109000       0.55310000
    90  C          0.57152000       0.32109000       0.05310000
    91  C          0.07152000       0.82109000       0.05310000
    92  C          0.07152000       0.32109000       0.55310000
    93  C          0.17848000       0.57109000       0.80310000
    94  C          0.17848000       0.07109000       0.30310000
    95  C          0.67848000       0.57109000       0.30310000
    96  C          0.67848000       0.07109000       0.80310000
    97  C          0.28092000       0.44321000       0.46120000
    98  C          0.28092000       0.94321000       0.96120000
    99  C          0.78092000       0.44321000       0.96120000
   100  C          0.78092000       0.94321000       0.46120000
   101  C          0.96908000       0.69321000       0.71120000
   102  C          0.96908000       0.19321000       0.21120000
   103  C          0.46908000       0.69321000       0.21120000
   104  C          0.46908000       0.19321000       0.71120000
   105  C          0.53092000       0.80679000       0.71120000
   106  C          0.53092000       0.30679000       0.21120000
   107  C          0.03092000       0.80679000       0.21120000
   108  C          0.03092000       0.30679000       0.71120000
   109  C          0.21908000       0.55679000       0.96120000
   110  C          0.21908000       0.05679000       0.46120000
   111  C          0.71908000       0.55679000       0.46120000
   112  C          0.71908000       0.05679000       0.96120000
   113  C          0.24551000       0.40492000       0.53320000
   114  C          0.24551000       0.90492000       0.03320000
   115  C          0.74551000       0.40492000       0.03320000
   116  C          0.74551000       0.90492000       0.53320000
   117  C          0.00449000       0.65492000       0.78320000
   118  C          0.00449000       0.15492000       0.28320000
   119  C          0.50449000       0.65492000       0.28320000
   120  C          0.50449000       0.15492000       0.78320000
   121  C          0.49551000       0.84508000       0.78320000
   122  C          0.49551000       0.34508000       0.28320000
   123  C         -0.00449000       0.84508000       0.28320000
   124  C         -0.00449000       0.34508000       0.78320000
   125  C          0.25449000       0.59508000       0.03320000
   126  C          0.25449000       0.09508000       0.53320000
   127  C          0.75449000       0.59508000       0.53320000
   128  C          0.75449000       0.09508000       0.03320000
   129  C          0.25271000       0.35282000       0.43810000
   130  C          0.25271000       0.85282000       0.93810000
   131  C          0.75271000       0.35282000       0.93810000
   132  C          0.75271000       0.85282000       0.43810000
   133  C         -0.00271000       0.60282000       0.68810000
   134  C         -0.00271000       0.10282000       0.18810000
   135  C          0.49729000       0.60282000       0.18810000
   136  C          0.49729000       0.10282000       0.68810000
   137  C          0.50271000       0.89718000       0.68810000
   138  C          0.50271000       0.39718000       0.18810000
   139  C          0.00271000       0.89718000       0.18810000
   140  C          0.00271000       0.39718000       0.68810000
   141  C          0.24729000       0.64718000       0.93810000
   142  C          0.24729000       0.14718000       0.43810000
   143  C          0.74729000       0.64718000       0.43810000
   144  C          0.74729000       0.14718000       0.93810000
   145  C          0.29401000       0.33671000       0.28110000
   146  C          0.29401000       0.83671000       0.78110000
   147  C          0.79401000       0.33671000       0.78110000
   148  C          0.79401000       0.83671000       0.28110000
   149  C          0.95599000       0.58671000       0.53110000
   150  C          0.95599000       0.08671000       0.03110000
   151  C          0.45599000       0.58671000       0.03110000
   152  C          0.45599000       0.08671000       0.53110000
   153  C          0.54401000       0.91329000       0.53110000
   154  C          0.54401000       0.41329000       0.03110000
   155  C          0.04401000       0.91329000       0.03110000
   156  C          0.04401000       0.41329000       0.53110000
   157  C          0.20599000       0.66329000       0.78110000
   158  C          0.20599000       0.16329000       0.28110000
   159  C          0.70599000       0.66329000       0.28110000
   160  C          0.70599000       0.16329000       0.78110000
   161  C          0.32921000       0.37532000       0.20820000
   162  C          0.32921000       0.87532000       0.70820000
   163  C          0.82921000       0.37532000       0.70820000
   164  C          0.82921000       0.87532000       0.20820000
   165  C          0.92079000       0.62532000       0.45820000
   166  C          0.92079000       0.12532000       0.95820000
   167  C          0.42079000       0.62532000       0.95820000
   168  C          0.42079000       0.12532000       0.45820000
   169  C          0.57921000       0.87468000       0.45820000
   170  C          0.57921000       0.37468000       0.95820000
   171  C          0.07921000       0.87468000       0.95820000
   172  C          0.07921000       0.37468000       0.45820000
   173  C          0.17079000       0.62468000       0.70820000
   174  C          0.17079000       0.12468000       0.20820000
   175  C          0.67079000       0.62468000       0.20820000
   176  C          0.67079000       0.12468000       0.70820000
   177  H          0.33920000       0.22710000      -0.02100000
   178  H          0.33920000       0.72710000       0.47900000
   179  H          0.83920000       0.22710000       0.47900000
   180  H          0.83920000       0.72710000      -0.02100000
   181  H          0.91080000       0.47710000       0.22900000
   182  H          0.91080000       0.97710000       0.72900000
   183  H          0.41080000       0.47710000       0.72900000
   184  H          0.41080000       0.97710000       0.22900000
   185  H          0.58920000       0.02290000       0.22900000
   186  H          0.58920000       0.52290000       0.72900000
   187  H          0.08920000       0.02290000       0.72900000
   188  H          0.08920000       0.52290000       0.22900000
   189  H          0.16080000       0.77290000       0.47900000
   190  H          0.16080000       0.27290000      -0.02100000
   191  H          0.66080000       0.77290000      -0.02100000
   192  H          0.66080000       0.27290000       0.47900000
   193  H          0.40110000       0.28810000       0.86900000
   194  H          0.40110000       0.78810000       0.36900000
   195  H          0.90110000       0.28810000       0.36900000
   196  H          0.90110000       0.78810000       0.86900000
   197  H          0.84890000       0.53810000       0.11900000
   198  H          0.84890000       0.03810000       0.61900000
   199  H          0.34890000       0.53810000       0.61900000
   200  H          0.34890000       0.03810000       0.11900000
   201  H          0.65110000       0.96190000       0.11900000
   202  H          0.65110000       0.46190000       0.61900000
   203  H          0.15110000       0.96190000       0.61900000
   204  H          0.15110000       0.46190000       0.11900000
   205  H          0.09890000       0.71190000       0.36900000
   206  H          0.09890000       0.21190000       0.86900000
   207  H          0.59890000       0.71190000       0.86900000
   208  H          0.59890000       0.21190000       0.36900000
   209  H          0.39510000       0.39010000       0.02100000
   210  H          0.39510000       0.89010000       0.52100000
   211  H          0.89510000       0.39010000       0.52100000
   212  H          0.89510000       0.89010000       0.02100000
   213  H          0.85490000       0.64010000       0.27100000
   214  H          0.85490000       0.14010000       0.77100000
   215  H          0.35490000       0.64010000       0.77100000
   216  H          0.35490000       0.14010000       0.27100000
   217  H          0.64510000       0.85990000       0.27100000
   218  H          0.64510000       0.35990000       0.77100000
   219  H          0.14510000       0.85990000       0.77100000
   220  H          0.14510000       0.35990000       0.27100000
   221  H          0.10490000       0.60990000       0.52100000
   222  H          0.10490000       0.10990000       0.02100000
   223  H          0.60490000       0.60990000       0.02100000
   224  H          0.60490000       0.10990000       0.52100000
   225  H          0.34310000       0.45610000       0.25100000
   226  H          0.34310000       0.95610000       0.75100000
   227  H          0.84310000       0.45610000       0.75100000
   228  H          0.84310000       0.95610000       0.25100000
   229  H          0.90690000       0.70610000       0.50100000
   230  H          0.90690000       0.20610000       0.00100000
   231  H          0.40690000       0.70610000       0.00100000
   232  H          0.40690000       0.20610000       0.50100000
   233  H          0.59310000       0.79390000       0.50100000
   234  H          0.59310000       0.29390000       0.00100000
   235  H          0.09310000       0.79390000       0.00100000
   236  H          0.09310000       0.29390000       0.50100000
   237  H          0.15690000       0.54390000       0.75100000
   238  H          0.15690000       0.04390000       0.25100000
   239  H          0.65690000       0.54390000       0.25100000
   240  H          0.65690000       0.04390000       0.75100000
   241  H          0.27810000       0.48110000       0.55100000
   242  H          0.27810000       0.98110000       0.05100000
   243  H          0.77810000       0.48110000       0.05100000
   244  H          0.77810000       0.98110000       0.55100000
   245  H          0.97190000       0.73110000       0.80100000
   246  H          0.97190000       0.23110000       0.30100000
   247  H          0.47190000       0.73110000       0.30100000
   248  H          0.47190000       0.23110000       0.80100000
   249  H          0.52810000       0.76890000       0.80100000
   250  H          0.52810000       0.26890000       0.30100000
   251  H          0.02810000       0.76890000       0.30100000
   252  H          0.02810000       0.26890000       0.80100000
   253  H          0.22190000       0.51890000       0.05100000
   254  H          0.22190000       0.01890000       0.55100000
   255  H          0.72190000       0.51890000       0.55100000
   256  H          0.72190000       0.01890000       0.05100000
   257  H          0.21610000       0.41510000       0.64100000
   258  H          0.21610000       0.91510000       0.14100000
   259  H          0.71610000       0.41510000       0.14100000
   260  H          0.71610000       0.91510000       0.64100000
   261  H          0.03390000       0.66510000       0.89100000
   262  H          0.03390000       0.16510000       0.39100000
   263  H          0.53390000       0.66510000       0.39100000
   264  H          0.53390000       0.16510000       0.89100000
   265  H          0.46610000       0.83490000       0.89100000
   266  H          0.46610000       0.33490000       0.39100000
   267  H          0.96610000       0.83490000       0.39100000
   268  H          0.96610000       0.33490000       0.89100000
   269  H          0.28390000       0.58490000       0.14100000
   270  H          0.28390000       0.08490000       0.64100000
   271  H          0.78390000       0.58490000       0.64100000
   272  H          0.78390000       0.08490000       0.14100000
   273  H          0.22010000       0.28010000       0.40100000
   274  H          0.22010000       0.78010000       0.90100000
   275  H          0.72010000       0.28010000       0.90100000
   276  H          0.72010000       0.78010000       0.40100000
   277  H          0.02990000       0.53010000       0.65100000
   278  H          0.02990000       0.03010000       0.15100000
   279  H          0.52990000       0.53010000       0.15100000
   280  H          0.52990000       0.03010000       0.65100000
   281  H          0.47010000       0.96990000       0.65100000
   282  H          0.47010000       0.46990000       0.15100000
   283  H          0.97010000       0.96990000       0.15100000
   284  H          0.97010000       0.46990000       0.65100000
   285  H          0.27990000       0.71990000       0.90100000
   286  H          0.27990000       0.21990000       0.40100000
   287  H          0.77990000       0.71990000       0.40100000
   288  H          0.77990000       0.21990000       0.90100000
