data_HXQUIN14
_symmetry_space_group_name_H-M    'P1'
_symmetry_Int_Tables_number       1
loop_
_symmetry_equiv_pos_site_id
_symmetry_equiv_pos_as_xyz
1 x,y,z
_cell_length_a                   6.6203
_cell_length_b                   9.2434
_cell_length_c                   11.0704
_cell_angle_alpha                90.0
_cell_angle_beta                 90.7186
_cell_angle_gamma                90.0
loop_
_atom_site_label
_atom_site_type_symbol
_atom_site_fract_x
_atom_site_fract_y
_atom_site_fract_z
     1  O          0.34421120       0.32417900       0.07956700
     2  O          0.15578880       0.82417900       0.42043300
     3  O          0.65578880       0.67582100       0.92043300
     4  O          0.84421120       0.17582100       0.57956700
     5  H          0.42320000       0.39201900       0.05381400
     6  H          0.07680000       0.89201900       0.44618600
     7  H          0.57680000       0.60798100       0.94618600
     8  H          0.92320000       0.10798100       0.55381400
     9  N          0.32084130       0.48141100       0.86794800
    10  N          0.17915870       0.98141100       0.63205200
    11  N          0.67915870       0.51858900       0.13205200
    12  N          0.82084130       0.01858900       0.36794800
    13  C          0.30597170       0.55312120       0.76494100
    14  C          0.19402830       0.05312120       0.73505900
    15  C          0.69402830       0.44687880       0.23505900
    16  C          0.80597170       0.94687880       0.26494100
    17  H          0.41920000       0.60810000       0.73980000
    18  H          0.08080000       0.10810000       0.76020000
    19  H          0.58080000       0.39190000       0.26020000
    20  H          0.91920000       0.89190000       0.23980000
    21  C          0.13175170       0.55296120       0.68997100
    22  C          0.36824830       0.05296120       0.81002900
    23  C          0.86824830       0.44703880       0.31002900
    24  C          0.63175170       0.94703880       0.18997100
    25  H          0.12910000       0.60660000       0.61680000
    26  H          0.37090000       0.10660000       0.88320000
    27  H          0.87090000       0.39340000       0.38320000
    28  H          0.62910000       0.89340000       0.11680000
    29  C          0.96704830       0.47463110       0.72420100
    30  C          0.53295170       0.97463110       0.77579900
    31  C          0.03295170       0.52536890       0.27579900
    32  C          0.46704830       0.02536890       0.22420100
    33  H          0.84810000       0.47410000       0.67530000
    34  H          0.65190000       0.97410000       0.82470000
    35  H          0.15190000       0.52590000       0.32470000
    36  H          0.34810000       0.02590000       0.17530000
    37  C          0.97492850       0.39431110       0.83296900
    38  C          0.52507150       0.89431110       0.66703100
    39  C          0.02507150       0.60568890       0.16703100
    40  C          0.47492850       0.10568890       0.33296900
    41  C          0.81264840       0.30848110       0.87370100
    42  C          0.68735160       0.80848110       0.62629900
    43  C          0.18735160       0.69151890       0.12629900
    44  C          0.31264840       0.19151890       0.37370100
    45  H          0.68970000       0.30460000       0.82860000
    46  H          0.81030000       0.80460000       0.67140000
    47  H          0.31030000       0.69540000       0.17140000
    48  H          0.18970000       0.19540000       0.32860000
    49  C          0.83367840       0.23086120       0.97870100
    50  C          0.66632160       0.73086120       0.52129900
    51  C          0.16632160       0.76913880       0.02129900
    52  C          0.33367840       0.26913880       0.47870100
    53  H          0.72480000       0.17260000       0.00540000
    54  H          0.77520000       0.67260000       0.49460000
    55  H          0.27520000       0.82740000      -0.00540000
    56  H          0.22480000       0.32740000       0.50540000
    57  C          0.01393160       0.23605120       0.04765900
    58  C          0.48606840       0.73605120       0.45234100
    59  C         -0.01393160       0.76394880       0.95234100
    60  C          0.51393160       0.26394880       0.54765900
    61  H          0.02600000       0.18050000       0.11960000
    62  H          0.47400000       0.68050000       0.38040000
    63  H          0.97400000       0.81950000       0.88040000
    64  H          0.52600000       0.31950000       0.61960000
    65  C          0.17237160       0.32095110       0.01141900
    66  C          0.32762840       0.82095110       0.48858100
    67  C          0.82762840       0.67904890      -0.01141900
    68  C          0.67237160       0.17904890       0.51141900
    69  C          0.15734150       0.40160110       0.90195900
    70  C          0.34265850       0.90160110       0.59804100
    71  C          0.84265850       0.59839890       0.09804100
    72  C          0.65734150       0.09839890       0.40195900
