data_IFILAL02
_symmetry_space_group_name_H-M    'P1'
_symmetry_Int_Tables_number       1
loop_
_symmetry_equiv_pos_site_id
_symmetry_equiv_pos_as_xyz
1 x,y,z
_cell_length_a                   9.54812
_cell_length_b                   7.98211
_cell_length_c                   12.36416
_cell_angle_alpha                90.0
_cell_angle_beta                 102.251
_cell_angle_gamma                90.0
loop_
_atom_site_label
_atom_site_type_symbol
_atom_site_fract_x
_atom_site_fract_y
_atom_site_fract_z
     1  S          0.90464000       0.32605000       0.55912000
     2  S          0.09536000       0.82605000       0.44088000
     3  S          0.53923000       0.41086000       0.67603000
     4  S          0.46077000       0.91086000       0.32397000
     5  O          0.87647000       0.78428800       0.00866000
     6  O          0.12353000       0.28428800      -0.00866000
     7  O          0.17688000       0.24501400       0.62966000
     8  O          0.82312000       0.74501400       0.37034000
     9  N          0.02988000       0.74498800       0.89396000
    10  N          0.97012000       0.24498800       0.10604000
    11  N          0.26419000       0.97478800       0.83887000
    12  N          0.73581000       0.47478800       0.16113000
    13  N          0.05281000       0.24011400       0.76578000
    14  N          0.94719000       0.74011400       0.23422000
    15  N          0.81109000       0.31661500       0.73577000
    16  N          0.18891000       0.81661500       0.26423000
    17  N          0.73379000       0.37721600       0.54927000
    18  N          0.26621000       0.87721600       0.45073000
    19  C          0.89511100       0.77278400       0.91128000
    20  C          0.10488900       0.27278400       0.08872000
    21  C          0.78191200       0.78080000       0.81571100
    22  C          0.21808800       0.28080000       0.18428900
    23  H          0.68840000       0.79930000       0.82360000
    24  H          0.31160000       0.29930000       0.17640000
    25  C          0.80931500       0.76280000       0.71371000
    26  C          0.19068500       0.26280000       0.28629000
    27  H          0.73520000       0.77280000       0.65170000
    28  H          0.26480000       0.27280000       0.34830000
    29  C          0.94661400       0.72880000       0.70079000
    30  C          0.05338600       0.22880000       0.29921000
    31  H          0.96400000       0.71340000       0.63020000
    32  H          0.03600000       0.21340000       0.36980000
    33  C          0.05571200       0.71768500       0.79028000
    34  C          0.94428800       0.21768500       0.20972000
    35  C          0.20811400       0.68968400       0.77811000
    36  C          0.79188600       0.18968400       0.22189000
    37  H          0.20740000       0.61180000       0.71670000
    38  H          0.79260000       0.11180000       0.28330000
    39  C          0.29871400       0.61708500       0.88141000
    40  C          0.70128600       0.11708500       0.11859000
    41  H          0.39590000       0.59890000       0.87210000
    42  H          0.60410000       0.09890000       0.12790000
    43  H          0.25950000       0.51090000       0.89910000
    44  H          0.74050000       0.01090000       0.10090000
    45  C          0.29661100       0.74598400       0.97349000
    46  C          0.70338900       0.24598400       0.02651000
    47  H          0.36160000       0.70710000       0.04100000
    48  H          0.63840000       0.20710000       0.95900000
    49  C          0.14541000       0.75008300      -0.00542000
    50  C          0.85459000       0.25008300       0.00542000
    51  H          0.13370000       0.65550000       0.04100000
    52  H          0.86630000       0.15550000       0.95900000
    53  H          0.13450000       0.85130000       0.03540000
    54  H          0.86550000       0.35130000       0.96460000
    55  C          0.34731100       0.91318400       0.94379000
    56  C          0.65268900       0.41318400       0.05621000
    57  H          0.34070000      -0.00720000       0.00170000
    58  H          0.65930000       0.49280000      -0.00170000
    59  H          0.44720000       0.90490000       0.93910000
    60  H          0.55280000       0.40490000       0.06090000
    61  C          0.26791200       0.85538500       0.75058000
    62  C          0.73208800       0.35538500       0.24942000
    63  H          0.36590000       0.84070000       0.74210000
    64  H          0.63410000       0.34070000       0.25790000
    65  H          0.21160000       0.89750000       0.68120000
    66  H          0.78840000       0.39750000       0.31880000
    67  C          0.29851200       0.14461500       0.80891100
    68  C          0.70148800       0.64461500       0.19108900
    69  H          0.38360000       0.14300000       0.77790000
    70  H          0.61640000       0.64300000       0.22210000
    71  H          0.31740000       0.21510000       0.87430000
    72  H          0.68260000       0.71510000       0.12570000
    73  C          0.17381200       0.21411500       0.72521000
    74  C          0.82618800       0.71411500       0.27479000
    75  C          0.92721300       0.28951600       0.69978000
    76  C          0.07278700       0.78951600       0.30022000
    77  C          0.70571100       0.36601800       0.64848000
    78  C          0.29428900       0.86601800       0.35152000
    79  C          0.43681300       0.46520000       0.54291000
    80  C          0.56318700       0.96520000       0.45709000
    81  H          0.34090000       0.49330000       0.54870000
    82  H          0.65910000      -0.00670000       0.45130000
    83  H          0.43460000       0.37240000       0.49340000
    84  H          0.56540000       0.87240000       0.50660000
    85  H          0.47990000       0.56020000       0.51490000
    86  H          0.52010000       0.06020000       0.48510000
    87  H          0.05914000       0.22200000       0.85212000
    88  H          0.94086000       0.72200000       0.14788000
