data_IFILAL
_symmetry_space_group_name_H-M    'P1'
_symmetry_Int_Tables_number       1
loop_
_symmetry_equiv_pos_site_id
_symmetry_equiv_pos_as_xyz
1 x,y,z
_cell_length_a                   9.4796
_cell_length_b                   7.24311
_cell_length_c                   13.2659
_cell_angle_alpha                90.0
_cell_angle_beta                 106.965
_cell_angle_gamma                90.0
loop_
_atom_site_label
_atom_site_type_symbol
_atom_site_fract_x
_atom_site_fract_y
_atom_site_fract_z
     1  S          0.85198000       0.16794000       0.90079850
     2  S          0.14802000       0.66794000       0.09920150
     3  S          0.23552000       0.14634000       0.81619840
     4  S          0.76448000       0.64634000       0.18380160
     5  O          0.44477000       0.75758900       0.28296000
     6  O          0.55523000       0.25758900       0.71704000
     7  O          0.75215000       0.17271200       0.06964000
     8  O          0.24785000       0.67271200       0.93036000
     9  N          0.35787000       0.01161000       0.34955000
    10  N          0.64213000       0.51161000       0.65045000
    11  N          0.03496000       0.12031000       0.31965000
    12  N          0.96504000       0.62031000       0.68035000
    13  N         -0.00116000       0.14351200       0.11104000
    14  N          0.00116000       0.64351200       0.88896000
    15  H          0.08030000       0.13180000       0.16070000
    16  H          0.91970000       0.63180000       0.83930000
    17  N          0.12896000       0.14411200       0.98596000
    18  N          0.87104000       0.64411200       0.01404000
    19  N          0.95923000       0.16701300       0.82165000
    20  N          0.04077000       0.66701300       0.17835000
    21  C          0.43639000       0.92818600       0.28547000
    22  C          0.56361000       0.42818600       0.71453000
    23  C          0.49011100       0.05091600       0.22528000
    24  C          0.50988900       0.55091600       0.77472000
    25  H          0.53380000       0.00350000       0.17630000
    26  H          0.46620000       0.50350000       0.82370000
    27  C          0.48211200       0.23321700       0.23421000
    28  C          0.51788800       0.73321700       0.76579000
    29  H          0.52700000       0.31040000       0.19670000
    30  H          0.47300000       0.81040000       0.80330000
    31  C          0.40541000       0.30901500       0.30089000
    32  C          0.59459000       0.80901500       0.69911000
    33  H          0.39570000       0.43630000       0.30500000
    34  H          0.60430000       0.93630000       0.69500000
    35  C          0.34628000       0.19691200       0.35817000
    36  C          0.65372000       0.69691200       0.64183000
    37  C          0.25671000       0.26921500       0.42747000
    38  C          0.74329000       0.76921500       0.57253000
    39  H          0.29680000       0.38930000       0.45590000
    40  H          0.70320000       0.88930000       0.54410000
    41  C          0.26651000       0.13851900       0.51906000
    42  C          0.73349000       0.63851900       0.48094000
    43  H          0.36840000       0.12240000       0.56080000
    44  H          0.63160000       0.62240000       0.43920000
    45  H          0.21100000       0.18700000       0.56410000
    46  H          0.78900000       0.68700000       0.43590000
    47  C          0.20359000       0.96138500       0.47216000
    48  C          0.79641000       0.46138500       0.52784000
    49  H          0.20330000       0.87710000       0.52990000
    50  H          0.79670000       0.37710000       0.47010000
    51  C          0.29919000       0.87658600       0.41116000
    52  C          0.70081000       0.37658600       0.58884000
    53  H          0.38130000       0.81390000       0.46010000
    54  H          0.61870000       0.31390000       0.53990000
    55  H          0.24190000       0.78450000       0.36320000
    56  H          0.75810000       0.28450000       0.63680000
    57  C          0.04559000      -0.01731400       0.40387000
    58  C          0.95441000       0.48268600       0.59613000
    59  H          0.00900000       0.86460000       0.37240000
    60  H         -0.00900000       0.36460000       0.62760000
    61  H         -0.01570000       0.02140000       0.44720000
    62  H          0.01570000       0.52140000       0.55280000
    63  C          0.09509000       0.29601300       0.36127000
    64  C          0.90491000       0.79601300       0.63873000
    65  H          0.03830000       0.34710000       0.40470000
    66  H          0.96170000       0.84710000       0.59530000
    67  H          0.08990000       0.38140000       0.30390000
    68  H          0.91010000       0.88140000       0.69610000
    69  C          0.88213000       0.13551700       0.25165000
    70  C          0.11787000       0.63551700       0.74835000
    71  H          0.83650000       0.24230000       0.27330000
    72  H          0.16350000       0.74230000       0.72670000
    73  H          0.82780000       0.02710000       0.26160000
    74  H          0.17220000       0.52710000       0.73840000
    75  C          0.87013000       0.15331600       0.13776000
    76  C          0.12987000       0.65331600       0.86224000
    77  C          0.00488000       0.15131300       0.00885000
    78  C         -0.00488000       0.65131300      -0.00885000
    79  C          0.09569000       0.15131400       0.87835000
    80  C          0.90431000       0.65131400       0.12165000
    81  C          0.39709000       0.13420000       0.92633000
    82  C          0.60291000       0.63420000       0.07367000
    83  H          0.48280000       0.12980000       0.90200000
    84  H          0.51720000       0.62980000       0.09800000
    85  H          0.39320000       0.02480000       0.96660000
    86  H          0.60680000       0.52480000       0.03340000
    87  H          0.40190000       0.24090000       0.97010000
    88  H          0.59810000       0.74090000       0.02990000
