data_IFILAL01
_symmetry_space_group_name_H-M    'P1'
_symmetry_Int_Tables_number       1
loop_
_symmetry_equiv_pos_site_id
_symmetry_equiv_pos_as_xyz
1 x,y,z
_cell_length_a                   7.311015
_cell_length_b                   9.545019
_cell_length_c                   25.0505
_cell_angle_alpha                90.0
_cell_angle_beta                 90.0
_cell_angle_gamma                90.0
loop_
_atom_site_label
_atom_site_type_symbol
_atom_site_fract_x
_atom_site_fract_y
_atom_site_fract_z
     1  S          0.61572000       0.85945170       0.55149600
     2  S          0.88428000       0.14054830       0.05149600
     3  S          0.38428000       0.35945170       0.94850400
     4  S          0.11572000       0.64054830       0.44850400
     5  S          0.64913000       0.44569190       0.59585600
     6  S          0.85087000       0.55430810       0.09585600
     7  S          0.35087000       0.94569190       0.90414400
     8  S          0.14913000       0.05430810       0.40414400
     9  O          0.03576000       0.41475000       0.35058180
    10  O          0.46424000       0.58525000       0.85058180
    11  O          0.96424000       0.91475000       0.14941820
    12  O          0.53576000       0.08525000       0.64941820
    13  O          0.61917000       0.02714000       0.46594160
    14  O          0.88083000       0.97286000       0.96594160
    15  O          0.38083000       0.52714000       0.03405840
    16  O          0.11917000       0.47286000       0.53405840
    17  N          0.77826000       0.53185000       0.32425170
    18  N          0.72174000       0.46815000       0.82425170
    19  N          0.22174000       0.03185000       0.17574830
    20  N          0.27826000       0.96815000       0.67574830
    21  N          0.67106000       0.84464000       0.33988160
    22  N          0.82894000       0.15536000       0.83988160
    23  N          0.32894000       0.34464000       0.16011840
    24  N          0.17106000       0.65536000       0.66011840
    25  N          0.65347000       0.79904000       0.44566180
    26  N          0.84653000       0.20096000       0.94566180
    27  N          0.34653000       0.29904000       0.05433820
    28  N          0.15347000       0.70096000       0.55433820
    29  H          0.66940000       0.73890000       0.42050000
    30  H          0.83060000       0.26110000       0.92050000
    31  H          0.33060000       0.23890000       0.07950000
    32  H          0.16940000       0.76110000       0.57950000
    33  N          0.65197000       0.61875000       0.50927160
    34  N          0.84803000       0.38125000       0.00927160
    35  N          0.34803000       0.11875000       0.99072840
    36  N          0.15197000       0.88125000       0.49072840
    37  N          0.61748000       0.72096000       0.59273180
    38  N          0.88252000       0.27904000       0.09273180
    39  N          0.38252000       0.22096000       0.90726820
    40  N          0.11748000       0.77904000       0.40726820
    41  C          0.86919000       0.42846000       0.35472000
    42  C          0.63081000       0.57154000       0.85472000
    43  C          0.13081000       0.92846000       0.14528000
    44  C          0.36919000       0.07154000       0.64528000
    45  C          0.75361000       0.34917000       0.38852000
    46  C          0.74639000       0.65083000       0.88852000
    47  C          0.24639000       0.84917000       0.11148000
    48  C          0.25361000       0.15083000       0.61148000
    49  H          0.80530000       0.28090000       0.41030000
    50  H          0.69470000       0.71910000       0.91030000
    51  H          0.19470000       0.78090000       0.08970000
    52  H          0.30530000       0.21910000       0.58970000
    53  C          0.57331000       0.36907000       0.39013000
    54  C          0.92669000       0.63093000       0.89013000
    55  C          0.42669000       0.86907000       0.10987000
    56  C          0.07331000       0.13093000       0.60987000
    57  H          0.50210000       0.31460000       0.41290000
    58  H         -0.00210000       0.68540000       0.91290000
    59  H          0.49790000       0.81460000       0.08710000
    60  H          0.00210000       0.18540000       0.58710000
    61  C          0.48928000       0.47106000       0.35792000
    62  C          0.01072000       0.52894000       0.85792000
    63  C          0.51072000       0.97106000       0.14208000
    64  C         -0.01072000       0.02894000       0.64208000
    65  H          0.36310000       0.48340000       0.35910000
    66  H          0.13690000       0.51660000       0.85910000
    67  H          0.63690000       0.98340000       0.14090000
    68  H          0.86310000       0.01660000       0.64090000
    69  C          0.59267000       0.55085000       0.32522000
    70  C          0.90733000       0.44915000       0.82522000
    71  C          0.40733000       0.05085000       0.17478000
    72  C          0.09267000       0.94915000       0.67478000
    73  C          0.51059000       0.66176000       0.29022000
    74  C         -0.01059000       0.33824000       0.79022000
    75  C          0.48941000       0.16176000       0.20978000
    76  C          0.01059000       0.83824000       0.70978000
    77  H          0.38900000       0.63070000       0.27870000
    78  H          0.11100000       0.36930000       0.77870000
    79  H          0.61100000       0.13070000       0.22130000
    80  H          0.88900000       0.86930000       0.72130000
    81  C          0.62681200       0.68877000       0.24122000
    82  C          0.87318800       0.31123000       0.74122000
    83  C          0.37318800       0.18877000       0.25878000
    84  C          0.12681200       0.81123000       0.75878000
    85  H          0.63820000       0.60400000       0.22010000
    86  H          0.86180000       0.39600000       0.72010000
    87  H          0.36180000       0.10400000       0.27990000
    88  H          0.13820000       0.89600000       0.77990000
    89  H          0.57180000       0.76100000       0.21930000
    90  H          0.92820000       0.23900000       0.71930000
    91  H          0.42820000       0.26100000       0.28070000
    92  H          0.07180000       0.73900000       0.78070000
    93  C          0.81191100       0.73546000       0.26112000
    94  C          0.68808900       0.26454000       0.76112000
    95  C          0.18808900       0.23546000       0.23888000
    96  C          0.31191100       0.76454000       0.73888000
    97  H          0.88710000       0.75810000       0.22990000
    98  H          0.61290000       0.24190000       0.72990000
    99  H          0.11290000       0.25810000       0.27010000
   100  H          0.38710000       0.74190000       0.77010000
   101  C          0.90399000       0.61586000       0.29052000
   102  C          0.59601000       0.38414000       0.79052000
   103  C          0.09601000       0.11586000       0.20948000
   104  C          0.40399000       0.88414000       0.70948000
   105  H          0.96100000       0.55430000       0.26460000
   106  H          0.53900000       0.44570000       0.76460000
   107  H          0.03900000       0.05430000       0.23540000
   108  H          0.46100000       0.94570000       0.73540000
   109  H         -0.00010000       0.65390000       0.31300000
   110  H          0.50010000       0.34610000       0.81300000
   111  H          0.00010000       0.15390000       0.18700000
   112  H          0.49990000       0.84610000       0.68700000
   113  C          0.79559000       0.86636000       0.29472000
   114  C          0.70441000       0.13364000       0.79472000
   115  C          0.20441000       0.36636000       0.20528000
   116  C          0.29559000       0.63364000       0.70528000
   117  H          0.91540000       0.89240000       0.30800000
   118  H          0.58460000       0.10760000       0.80800000
   119  H          0.08460000       0.39240000       0.19200000
   120  H          0.41540000       0.60760000       0.69200000
   121  H          0.75040000       0.94250000       0.27280000
   122  H          0.74960000       0.05750000       0.77280000
   123  H          0.24960000       0.44250000       0.22720000
   124  H          0.25040000       0.55750000       0.72720000
   125  C          0.49029000       0.79856000       0.32183000
   126  C          0.00971000       0.20144000       0.82183000
   127  C          0.50971000       0.29856000       0.17817000
   128  C         -0.00971000       0.70144000       0.67817000
   129  H          0.43560000       0.87000000       0.29930000
   130  H          0.06440000       0.13000000       0.79930000
   131  H          0.56440000       0.37000000       0.20070000
   132  H          0.93560000       0.63000000       0.70070000
   133  H          0.41080000       0.78370000       0.35230000
   134  H          0.08920000       0.21630000       0.85230000
   135  H          0.58920000       0.28370000       0.14770000
   136  H          0.91080000       0.71630000       0.64770000
   137  C          0.66239000       0.96995000       0.37372000
   138  C          0.83761000       0.03005000       0.87372000
   139  C          0.33761000       0.46995000       0.12628000
   140  C          0.16239000       0.53005000       0.62628000
   141  H          0.55980000       0.02710000       0.36230000
   142  H          0.94020000       0.97290000       0.86230000
   143  H          0.44020000       0.52710000       0.13770000
   144  H          0.05980000       0.47290000       0.63770000
   145  H          0.77300000       0.02420000       0.36850000
   146  H          0.72700000       0.97580000       0.86850000
   147  H          0.22700000       0.52420000       0.13150000
   148  H          0.27300000       0.47580000       0.63150000
   149  C          0.64159000       0.93706000       0.43242000
   150  C          0.85841000       0.06294000       0.93242000
   151  C          0.35841000       0.43706000       0.06758000
   152  C          0.14159000       0.56294000       0.56758000
   153  C          0.64118000       0.75097000       0.49722000
   154  C          0.85882000       0.24903000      -0.00278000
   155  C          0.35882000       0.25097000       0.00278000
   156  C          0.14118000       0.74903000       0.50278000
   157  C          0.63708000       0.60886000       0.56362000
   158  C          0.86292000       0.39114000       0.06362000
   159  C          0.36292000       0.10886000       0.93638000
   160  C          0.13708000       0.89114000       0.43638000
   161  C          0.66081100       0.32736000       0.54052000
   162  C          0.83918900       0.67264000       0.04052000
   163  C          0.33918900       0.82736000       0.95948000
   164  C          0.16081100       0.17264000       0.45948000
   165  H          0.66760000       0.23280000       0.55340000
   166  H          0.83240000       0.76720000       0.05340000
   167  H          0.33240000       0.73280000       0.94660000
   168  H          0.16760000       0.26720000       0.44660000
   169  H          0.76750000       0.34780000       0.51950000
   170  H          0.73250000       0.65220000       0.01950000
   171  H          0.23250000       0.84780000       0.98050000
   172  H          0.26750000       0.15220000       0.48050000
   173  H          0.55350000       0.33800000       0.51880000
   174  H          0.94650000       0.66200000       0.01880000
   175  H          0.44650000       0.83800000       0.98120000
   176  H          0.05350000       0.16200000       0.48120000
