data_IFULUQ03
_symmetry_space_group_name_H-M    'P1'
_symmetry_Int_Tables_number       1
loop_
_symmetry_equiv_pos_site_id
_symmetry_equiv_pos_as_xyz
1 x,y,z
_cell_length_a                   8.33932
_cell_length_b                   9.47592
_cell_length_c                   11.91053
_cell_angle_alpha                102.79989
_cell_angle_beta                 90.18831
_cell_angle_gamma                104.760711
loop_
_atom_site_label
_atom_site_type_symbol
_atom_site_fract_x
_atom_site_fract_y
_atom_site_fract_z
     1  Cl         0.95286400       0.67270600       0.69024600
     2  Cl         0.04713600       0.32729400       0.30975400
     3  C          0.07772000       0.55154190       0.65682150
     4  C          0.92228000       0.44845810       0.34317850
     5  N          0.21691190       0.60018170       0.60725130
     6  N          0.78308810       0.39981830       0.39274870
     7  N          0.02667170       0.42116160       0.68445130
     8  N          0.97332830       0.57883840       0.31554870
     9  S          0.32517600       0.47544500       0.58200400
    10  S          0.67482400       0.52455500       0.41799600
    11  S          0.15854500       0.31592500       0.65153400
    12  S          0.84145500       0.68407500       0.34846600
    13  Cl         0.14417600       0.35977500       0.96877400
    14  Cl         0.85582400       0.64022500       0.03122600
    15  C          0.27432000       0.49562180       0.91302140
    16  C          0.72568000       0.50437820       0.08697860
    17  N          0.40787180       0.46305170       0.86372130
    18  N          0.59212820       0.53694830       0.13627870
    19  N          0.23315180       0.62264160       0.92037120
    20  N          0.76684820       0.37735840       0.07962880
    21  S          0.51786500       0.59911500       0.81184400
    22  S          0.48213500       0.40088500       0.18815600
    23  S          0.36496500       0.74139500       0.86189400
    24  S          0.63503500       0.25860500       0.13810600
    25  Cl         0.15831600       0.02124500       0.09678400
    26  Cl         0.84168400       0.97875500       0.90321600
    27  C          0.22632000       0.04076180       0.23714150
    28  C          0.77368000       0.95923820       0.76285850
    29  N          0.12315170       0.96701170       0.30200130
    30  N          0.87684830       0.03298830       0.69799870
    31  N          0.37796180       0.12510160       0.26987120
    32  N          0.62203820       0.87489840       0.73012880
    33  S          0.20339500      -0.00706500       0.43319400
    34  S          0.79660500       0.00706500       0.56680600
    35  S          0.43028500       0.13623500       0.40622400
    36  S          0.56971500       0.86376500       0.59377600
    37  Cl         0.73868500       0.96484500       0.22978400
    38  Cl         0.26131500       0.03515500       0.77021600
    39  C          0.54622000       0.85427180       0.24498140
    40  C          0.45378000       0.14572820       0.75501860
    41  N          0.52245170       0.81790160       0.34714120
    42  N          0.47754830       0.18209840       0.65285880
    43  N          0.43424170       0.81443160       0.15831120
    44  N          0.56575830       0.18556840       0.84168880
    45  S          0.33173500       0.71833500       0.35440300
    46  S          0.66826500       0.28166500       0.64559700
    47  S          0.25667500       0.70950500       0.18589300
    48  S          0.74332500       0.29049500       0.81410700
