data_IFULUQ02
_symmetry_space_group_name_H-M    'P1'
_symmetry_Int_Tables_number       1
loop_
_symmetry_equiv_pos_site_id
_symmetry_equiv_pos_as_xyz
1 x,y,z
_cell_length_a                   12.30322
_cell_length_b                   21.08745
_cell_length_c                   13.85322
_cell_angle_alpha                90.0
_cell_angle_beta                 104.0221
_cell_angle_gamma                90.0
loop_
_atom_site_label
_atom_site_type_symbol
_atom_site_fract_x
_atom_site_fract_y
_atom_site_fract_z
     1  C          0.87817150       0.96585100       0.37740120
     2  C          0.12182850       0.46585100       0.12259880
     3  C          0.12182850       0.03414900       0.62259880
     4  C          0.87817150       0.53414900       0.87740120
     5  N          0.96370130       0.00449800       0.37604110
     6  N          0.03629870       0.50449800       0.12395890
     7  N          0.03629870      -0.00449800       0.62395890
     8  N          0.96370130       0.49550200       0.87604110
     9  N          0.77543140       0.98409200       0.37596120
    10  N          0.22456860       0.48409200       0.12403880
    11  N          0.22456860       0.01590800       0.62403880
    12  N          0.77543140       0.51590800       0.87596120
    13  S          0.92892400       0.07945200       0.37486400
    14  S          0.07107600       0.57945200       0.12513600
    15  S          0.07107600       0.92054800       0.62513600
    16  S          0.92892400       0.42054800       0.87486400
    17  S          0.76281400       0.06162200       0.37441400
    18  S          0.23718600       0.56162200       0.12558600
    19  S          0.23718600       0.93837800       0.62558600
    20  S          0.76281400       0.43837800       0.87441400
    21  Cl         0.90606400       0.88610800       0.38280400
    22  Cl         0.09393600       0.38610800       0.11719600
    23  Cl         0.09393600       0.11389200       0.61719600
    24  Cl         0.90606400       0.61389200       0.88280400
    25  C          0.82417150       0.96936100       0.13207130
    26  C          0.17582850       0.46936100       0.36792870
    27  C          0.17582850       0.03063900       0.86792870
    28  C          0.82417150       0.53063900       0.63207130
    29  N          0.91332140       0.00788800       0.14453120
    30  N          0.08667860       0.50788800       0.35546880
    31  N          0.08667860       0.99211200       0.85546880
    32  N          0.91332140       0.49211200       0.64453120
    33  N          0.72152140       0.98811200       0.12897120
    34  N          0.27847860       0.48811200       0.37102880
    35  N          0.27847860       0.01188800       0.87102880
    36  N          0.72152140       0.51188800       0.62897120
    37  S          0.88199400       0.08242200       0.15757400
    38  S          0.11800600       0.58242200       0.34242600
    39  S          0.11800600       0.91757800       0.84242600
    40  S          0.88199400       0.41757800       0.65757400
    41  S          0.71207400       0.06511300       0.14131400
    42  S          0.28792600       0.56511300       0.35868600
    43  S          0.28792600       0.93488700       0.85868600
    44  S          0.71207400       0.43488700       0.64131400
    45  Cl         0.84727400       0.89023800       0.11783400
    46  Cl         0.15272600       0.39023800       0.38216600
    47  Cl         0.15272600       0.10976200       0.88216600
    48  Cl         0.84727400       0.60976200       0.61783400
    49  C          0.36891150       0.98871100       0.36563130
    50  C          0.63108850       0.48871100       0.13436870
    51  C          0.63108850       0.01128900       0.63436870
    52  C          0.36891150       0.51128900       0.86563130
    53  N          0.32144130       0.04487800       0.36684120
    54  N          0.67855870       0.54487800       0.13315880
    55  N          0.67855870       0.95512200       0.63315880
    56  N          0.32144130       0.45512200       0.86684120
    57  N          0.31818130       0.93315200       0.35735120
    58  N          0.68181870       0.43315200       0.14264880
    59  N          0.68181870       0.06684800       0.64264880
    60  N          0.31818130       0.56684800       0.85735120
    61  S          0.18600400       0.03801200       0.36000300
    62  S          0.81399600       0.53801200       0.13999700
    63  S          0.81399600       0.96198800       0.63999700
    64  S          0.18600400       0.46198800       0.86000300
    65  S          0.18301400       0.93954800       0.34848400
    66  S          0.81698600       0.43954800       0.15151600
    67  S          0.81698600       0.06045200       0.65151600
    68  S          0.18301400       0.56045200       0.84848400
    69  Cl         0.51205400       0.98783700       0.37600400
    70  Cl         0.48794600       0.48783700       0.12399600
    71  Cl         0.48794600       0.01216300       0.62399600
    72  Cl         0.51205400       0.51216300       0.87600400
    73  C          0.31258150       0.98950100       0.12118130
    74  C          0.68741850       0.48950100       0.37881870
    75  C          0.68741850       0.01049900       0.87881870
    76  C          0.31258150       0.51049900       0.62118130
    77  N          0.26906140       0.04629800       0.12597120
    78  N          0.73093860       0.54629800       0.37402880
    79  N          0.73093860       0.95370200       0.87402880
    80  N          0.26906140       0.45370200       0.62597120
    81  N          0.25924130       0.93484200       0.11993120
    82  N          0.74075870       0.43484200       0.38006880
    83  N          0.74075870       0.06515800       0.88006880
    84  N          0.25924130       0.56515800       0.61993120
    85  S          0.13551400       0.04219200       0.12623300
    86  S          0.86448600       0.54219200       0.37376700
    87  S          0.86448600       0.95780800       0.87376700
    88  S          0.13551400       0.45780800       0.62623300
    89  S          0.12865400       0.94357800       0.12506400
    90  S          0.87134600       0.44357800       0.37493600
    91  S          0.87134600       0.05642200       0.87493600
    92  S          0.12865400       0.55642200       0.62506400
    93  Cl         0.45053400       0.98576700       0.11435400
    94  Cl         0.54946600       0.48576700       0.38564600
    95  Cl         0.54946600       0.01423300       0.88564600
    96  Cl         0.45053400       0.51423300       0.61435400
    97  C          0.90242150       0.25663900       0.47936130
    98  C          0.09757850       0.75663900       0.02063870
    99  C          0.09757850       0.74336100       0.52063870
   100  C          0.90242150       0.24336100       0.97936130
   101  N          0.84777130       0.31122800       0.47327110
   102  N          0.15222870       0.81122800       0.02672890
   103  N          0.15222870       0.68877200       0.52672890
   104  N          0.84777130       0.18877200       0.97327110
   105  N          0.85770130       0.19963800       0.47866120
   106  N          0.14229870       0.69963800       0.02133880
   107  N          0.14229870       0.80036200       0.52133880
   108  N          0.85770130       0.30036200       0.97866120
   109  S          0.71405400       0.30192200       0.46652300
   110  S          0.28594600       0.80192200       0.03347700
   111  S          0.28594600       0.69807800       0.53347700
   112  S          0.71405400       0.19807800       0.96652300
   113  S          0.72360400       0.20341200       0.47633400
   114  S          0.27639600       0.70341200       0.02366600
   115  S          0.27639600       0.79658800       0.52366600
   116  S          0.72360400       0.29658800       0.97633400
   117  Cl         0.04526400       0.26125300       0.49175400
   118  Cl         0.95473600       0.76125300       0.00824600
   119  Cl         0.95473600       0.73874700       0.50824600
   120  Cl         0.04526400       0.23874700      -0.00824600
   121  C          0.83869150       0.25400900       0.23773130
   122  C          0.16130850       0.75400900       0.26226870
   123  C          0.16130850       0.74599100       0.76226870
   124  C          0.83869150       0.24599100       0.73773130
   125  N          0.78925130       0.30915800       0.24182120
   126  N          0.21074870       0.80915800       0.25817880
   127  N          0.21074870       0.69084200       0.75817880
   128  N          0.78925130       0.19084200       0.74182120
   129  N          0.79204130       0.19742800       0.23760120
   130  N          0.20795870       0.69742800       0.26239880
   131  N          0.20795870       0.80257200       0.76239880
   132  N          0.79204130       0.30257200       0.73760120
   133  S          0.65779400       0.30176200       0.24586300
   134  S          0.34220600       0.80176200       0.25413700
   135  S          0.34220600       0.69823800       0.75413700
   136  S          0.65779400       0.19823800       0.74586300
   137  S          0.65933400       0.20327200       0.24154300
   138  S          0.34066600       0.70327200       0.25845700
   139  S          0.34066600       0.79672800       0.75845700
   140  S          0.65933400       0.29672800       0.74154300
   141  Cl         0.97727400       0.25621300       0.23148400
   142  Cl         0.02272600       0.75621300       0.26851600
   143  Cl         0.02272600       0.74378700       0.76851600
   144  Cl         0.97727400       0.24378700       0.73148400
   145  C          0.41343160       0.27062100       0.49377130
   146  C          0.58656840       0.77062100       0.00622870
   147  C          0.58656840       0.72937900       0.50622870
   148  C          0.41343160       0.22937900      -0.00622870
   149  N          0.31050150       0.25264900       0.49192130
   150  N          0.68949850       0.75264900       0.00807870
   151  N          0.68949850       0.74735100       0.50807870
   152  N          0.31050150       0.24735100      -0.00807870
   153  N          0.49671130       0.23244800       0.48489120
   154  N          0.50328870       0.73244800       0.01510880
   155  N          0.50328870       0.76755200       0.51510880
   156  N          0.49671130       0.26755200       0.98489120
   157  S          0.29378400       0.17568300       0.47737400
   158  S          0.70621600       0.67568300       0.02262600
   159  S          0.70621600       0.82431700       0.52262600
   160  S          0.29378400       0.32431700       0.97737400
   161  S          0.45789400       0.15793300       0.47061400
   162  S          0.54210600       0.65793300       0.02938600
   163  S          0.54210600       0.84206700       0.52938600
   164  S          0.45789400       0.34206700       0.97061400
   165  Cl         0.44379400       0.35014200       0.50885400
   166  Cl         0.55620600       0.85014200      -0.00885400
   167  Cl         0.55620600       0.64985800       0.49114600
   168  Cl         0.44379400       0.14985800       0.00885400
   169  C          0.35321160       0.27692900       0.24755130
   170  C          0.64678840       0.77692900       0.25244870
   171  C          0.64678840       0.72307100       0.75244870
   172  C          0.35321160       0.22307100       0.74755130
   173  N          0.24968140       0.25969800       0.24447130
   174  N          0.75031860       0.75969800       0.25552870
   175  N          0.75031860       0.74030200       0.75552870
   176  N          0.24968140       0.24030200       0.74447130
   177  N          0.43850140       0.23708800       0.25133120
   178  N          0.56149860       0.73708800       0.24866880
   179  N          0.56149860       0.76291200       0.74866880
   180  N          0.43850140       0.26291200       0.75133120
   181  S          0.23453400       0.18248300       0.24416400
   182  S          0.76546600       0.68248300       0.25583600
   183  S          0.76546600       0.81751700       0.75583600
   184  S          0.23453400       0.31751700       0.74416400
   185  S          0.40151400       0.16253300       0.25182400
   186  S          0.59848600       0.66253300       0.24817600
   187  S          0.59848600       0.83746700       0.74817600
   188  S          0.40151400       0.33746700       0.75182400
   189  Cl         0.38228400       0.35635200       0.24618400
   190  Cl         0.61771600       0.85635200       0.25381600
   191  Cl         0.61771600       0.64364800       0.75381600
   192  Cl         0.38228400       0.14364800       0.74618400
