data_IFULUQ01
_symmetry_space_group_name_H-M    'P1'
_symmetry_Int_Tables_number       1
loop_
_symmetry_equiv_pos_site_id
_symmetry_equiv_pos_as_xyz
1 x,y,z
_cell_length_a                   9.03944
_cell_length_b                   9.74774
_cell_length_c                   10.17845
_cell_angle_alpha                90.0
_cell_angle_beta                 90.5542
_cell_angle_gamma                90.0
loop_
_atom_site_label
_atom_site_type_symbol
_atom_site_fract_x
_atom_site_fract_y
_atom_site_fract_z
     1  S          0.82191500       0.59722500       0.38886400
     2  S          0.67808500       0.09722500       0.11113600
     3  S          0.17808500       0.40277500       0.61113600
     4  S          0.32191500       0.90277500       0.88886400
     5  S          0.97439500       0.47118400       0.29366400
     6  S          0.52560500       0.97118400       0.20633600
     7  S          0.02560500       0.52881600       0.70633600
     8  S          0.47439500       0.02881600       0.79366400
     9  Cl         0.13146500       0.86035400       0.24006500
    10  Cl         0.36853500       0.36035400       0.25993500
    11  Cl         0.86853500       0.13964600       0.75993500
    12  Cl         0.63146500       0.63964600       0.74006500
    13  N          0.90446160       0.74166150       0.34866140
    14  N          0.59553840       0.24166150       0.15133860
    15  N          0.09553840       0.25833850       0.65133860
    16  N          0.40446160       0.75833850       0.84866140
    17  N          0.07857150       0.59801140       0.24594140
    18  N          0.42142850       0.09801140       0.25405860
    19  N          0.92142850       0.40198860       0.75405860
    20  N          0.57857150       0.90198860       0.74594140
    21  C          0.02759170       0.71905170       0.28205150
    22  C          0.47240830       0.21905170       0.21794850
    23  C          0.97240830       0.28094830       0.71794850
    24  C          0.52759170       0.78094830       0.78205150
    25  S          0.62729500       0.59577500       0.13188400
    26  S          0.87270500       0.09577500       0.36811600
    27  S          0.37270500       0.40422500       0.86811600
    28  S          0.12729500       0.90422500       0.63188400
    29  S          0.78950400       0.47288400       0.04684400
    30  S          0.71049600       0.97288400       0.45315600
    31  S          0.21049600       0.52711600       0.95315600
    32  S          0.28950400       0.02711600       0.54684400
    33  Cl         0.90618500       0.86388400       0.94832600
    34  Cl         0.59381500       0.36388400       0.55167400
    35  Cl         0.09381500       0.13611600       0.05167400
    36  Cl         0.40618500       0.63611600       0.44832600
    37  N          0.70007160       0.74221140       0.08357140
    38  N          0.79992840       0.24221140       0.41642860
    39  N          0.29992840       0.25778860       0.91642860
    40  N          0.20007160       0.75778860       0.58357140
    41  N          0.88196150       0.60245130      -0.01277130
    42  N          0.61803850       0.10245130       0.51277130
    43  N          0.11803850       0.39754870       0.01277130
    44  N          0.38196150       0.89754870       0.48722870
    45  C          0.82114170       0.72206160       0.01385150
    46  C          0.67885830       0.22206160       0.48614850
    47  C          0.17885830       0.27793840       0.98614850
    48  C          0.32114170       0.77793840       0.51385150
