data_IFULUQ
_symmetry_space_group_name_H-M    'P1'
_symmetry_Int_Tables_number       1
loop_
_symmetry_equiv_pos_site_id
_symmetry_equiv_pos_as_xyz
1 x,y,z
_cell_length_a                   10.82813
_cell_length_b                   11.79585
_cell_length_c                   14.17535
_cell_angle_alpha                90.0
_cell_angle_beta                 91.9713
_cell_angle_gamma                90.0
loop_
_atom_site_label
_atom_site_type_symbol
_atom_site_fract_x
_atom_site_fract_y
_atom_site_fract_z
     1  Cl         0.33188900       0.38421100       0.09623800
     2  Cl         0.66811100       0.88421100       0.40376200
     3  Cl         0.66811100       0.61578900       0.90376200
     4  Cl         0.33188900       0.11578900       0.59623800
     5  S          0.67700900       0.51016100       0.15801800
     6  S          0.32299100       0.01016100       0.34198200
     7  S          0.32299100       0.48983900       0.84198200
     8  S          0.67700900      -0.01016100       0.65801800
     9  S          0.68438900       0.34434100       0.20801800
    10  S          0.31561100       0.84434100       0.29198200
    11  S          0.31561100       0.65565900       0.79198200
    12  S          0.68438900       0.15565900       0.70801800
    13  N          0.53393000       0.50193000       0.11762000
    14  N          0.46607000       0.00193000       0.38238000
    15  N          0.46607000       0.49807000       0.88238000
    16  N          0.53393000      -0.00193000       0.61762000
    17  N          0.54073000       0.31463000       0.17442000
    18  N          0.45927000       0.81463000       0.32558000
    19  N          0.45927000       0.68537000       0.82558000
    20  N          0.54073000       0.18537000       0.67442000
    21  C          0.48404000       0.40064000       0.13203000
    22  C          0.51596000       0.90064000       0.36797000
    23  C          0.51596000       0.59936000       0.86797000
    24  C          0.48404000       0.09936000       0.63203000
    25  Cl         0.52435100       0.25604100       0.41829900
    26  Cl         0.47564900       0.75604100       0.08170100
    27  Cl         0.47564900       0.74395900       0.58170100
    28  Cl         0.52435100       0.24395900       0.91829900
    29  S          0.59206100       0.58904100       0.35752800
    30  S          0.40793900       0.08904100       0.14247200
    31  S          0.40793900       0.41095900       0.64247200
    32  S          0.59206100       0.91095900       0.85752800
    33  S          0.40986900       0.56160100       0.30964800
    34  S          0.59013100       0.06160100       0.19035200
    35  S          0.59013100       0.43839900       0.69035200
    36  S          0.40986900       0.93839900       0.80964800
    37  N          0.61423000       0.45943000       0.39653000
    38  N          0.38577000       0.95943000       0.10347000
    39  N          0.38577000       0.54057000       0.60347000
    40  N          0.61423000       0.04057000       0.89653000
    41  N          0.40913000       0.42783000       0.34323000
    42  N          0.59087000       0.92783000       0.15677000
    43  N          0.59087000       0.57217000       0.65677000
    44  N          0.40913000       0.07217000       0.84323000
    45  C          0.51474000       0.39574000       0.38353000
    46  C          0.48526000       0.89574000       0.11647000
    47  C          0.48526000       0.60426000       0.61647000
    48  C          0.51474000       0.10426000       0.88353000
    49  Cl         0.98225100       0.91084130       0.39248800
    50  Cl         0.01774900       0.41084130       0.10751200
    51  Cl         0.01774900       0.08915870       0.60751200
    52  Cl         0.98225100       0.58915870       0.89248800
    53  S          0.90038900       0.08404900       0.14825800
    54  S          0.09961100       0.58404900       0.35174200
    55  S          0.09961100       0.91595100       0.85174200
    56  S          0.90038900       0.41595100       0.64825800
    57  S          0.08462900       0.03429100       0.13727700
    58  S          0.91537100       0.53429100       0.36272300
    59  S          0.91537100       0.96570900       0.86272300
    60  S          0.08462900       0.46570900       0.63727700
    61  N          0.88383000       0.02473000       0.25152000
    62  N          0.11617000       0.52473000       0.24848000
    63  N          0.11617000       0.97527000       0.74848000
    64  N          0.88383000       0.47527000       0.75152000
    65  N          0.09143000       0.96883000       0.24032000
    66  N          0.90857000       0.46883000       0.25968000
    67  N          0.90857000       0.03117000       0.75968000
    68  N          0.09143000       0.53117000       0.74032000
    69  C          0.98634000       0.97544000       0.28493000
    70  C          0.01366000       0.47544000       0.21507000
    71  C          0.01366000       0.02456000       0.71507000
    72  C          0.98634000       0.52456000       0.78493000
    73  Cl         0.15484900       0.72739110       0.07802800
    74  Cl         0.84515100       0.22739110       0.42197200
    75  Cl         0.84515100       0.27260890       0.92197200
    76  Cl         0.15484900       0.77260890       0.57802800
    77  S          0.80915100       0.86781100       0.05681700
    78  S          0.19084900       0.36781100       0.44318300
    79  S          0.19084900       0.13218900       0.94318300
    80  S          0.80915100       0.63218900       0.55681700
    81  S          0.81481100       0.78681100       0.18719800
    82  S          0.18518900       0.28681100       0.31280200
    83  S          0.18518900       0.21318900       0.81280200
    84  S          0.81481100       0.71318900       0.68719800
    85  N          0.94907000       0.82843000       0.02952000
    86  N          0.05093000       0.32843000       0.47048000
    87  N          0.05093000       0.17157000       0.97048000
    88  N          0.94907000       0.67157000       0.52952000
    89  N          0.95607000       0.73653000       0.17673000
    90  N          0.04393000       0.23653000       0.32327000
    91  N          0.04393000       0.26347000       0.82327000
    92  N          0.95607000       0.76347000       0.67673000
    93  C          0.00534000       0.76654000       0.09663000
    94  C         -0.00534000       0.26654000       0.40337000
    95  C         -0.00534000       0.23346000       0.90337000
    96  C          0.00534000       0.73346000       0.59663000
