data_IFUXEN03
_symmetry_space_group_name_H-M    'P1'
_symmetry_Int_Tables_number       1
loop_
_symmetry_equiv_pos_site_id
_symmetry_equiv_pos_as_xyz
1 x,y,z
_cell_length_a                   10.9792
_cell_length_b                   9.376417
_cell_length_c                   10.8062
_cell_angle_alpha                90.0
_cell_angle_beta                 90.0
_cell_angle_gamma                90.0
loop_
_atom_site_label
_atom_site_type_symbol
_atom_site_fract_x
_atom_site_fract_y
_atom_site_fract_z
     1  S          0.36820300       0.21144400       0.25227300
     2  S          0.63179700       0.78855600       0.75227300
     3  S          0.13179700       0.71144400       0.75227300
     4  S          0.86820300       0.28855600       0.25227300
     5  O          0.80977100       0.42870120       0.57264100
     6  O          0.19022900       0.57129880       0.07264100
     7  O          0.69022900       0.92870120       0.07264100
     8  O          0.30977100       0.07129880       0.57264100
     9  H          0.76520000       0.39920000       0.52820000
    10  H          0.23480000       0.60080000       0.02820000
    11  H          0.73480000       0.89920000       0.02820000
    12  H          0.26520000       0.10080000       0.52820000
    13  O          0.95017100       0.39032120       0.98229100
    14  O          0.04982900       0.60967880       0.48229100
    15  O          0.54982900       0.89032120       0.48229100
    16  O          0.45017100       0.10967880       0.98229100
    17  H          0.93321900       0.34620000       0.04720000
    18  H          0.06678100       0.65380000       0.54720000
    19  H          0.56678100       0.84620000       0.54720000
    20  H          0.43321900       0.15380000       0.04720000
    21  N          0.52901110       0.20904130       0.43142110
    22  N          0.47098890       0.79095870       0.93142110
    23  N          0.97098890       0.70904130       0.93142110
    24  N          0.02901110       0.29095870       0.43142110
    25  H          0.49191900       0.13420000       0.45451900
    26  H          0.50808100       0.86580000       0.95451900
    27  H          0.00808100       0.63420000       0.95451900
    28  H         -0.00808100       0.36580000       0.45451900
    29  N          0.61983100       0.26386130       0.50593110
    30  N          0.38016900       0.73613870       0.00593110
    31  N          0.88016900       0.76386130       0.00593110
    32  N          0.11983100       0.23613870       0.50593110
    33  N          0.55304110       0.39423140       0.29467110
    34  N          0.44695890       0.60576860       0.79467110
    35  N          0.94695890       0.89423140       0.79467110
    36  N          0.05304110       0.10576860       0.29467110
    37  H          0.61921900       0.41420000       0.33520000
    38  H          0.38078100       0.58580000       0.83520000
    39  H          0.88078100       0.91420000       0.83520000
    40  H          0.11921900       0.08580000       0.33520000
    41  C          0.49192120       0.27794150       0.32810120
    42  C          0.50807880       0.72205850       0.82810120
    43  C          0.00807880       0.77794150       0.82810120
    44  C         -0.00807880       0.22205850       0.32810120
    45  C          0.63499120       0.19760150       0.60983120
    46  C          0.36500880       0.80239850       0.10983120
    47  C          0.86500880       0.69760150       0.10983120
    48  C          0.13499120       0.30239850       0.60983120
    49  H          0.58780000       0.11470000       0.62590000
    50  H          0.41220000       0.88530000       0.12590000
    51  H          0.91220000       0.61470000       0.12590000
    52  H          0.08780000       0.38530000       0.62590000
    53  C          0.72090120       0.24486140       0.70233120
    54  C          0.27909880       0.75513860       0.20233120
    55  C          0.77909880       0.74486140       0.20233120
    56  C          0.22090120       0.25513860       0.70233120
    57  C          0.80214120       0.35982140       0.68369120
    58  C          0.19785880       0.64017860       0.18369120
    59  C          0.69785880       0.85982140       0.18369120
    60  C          0.30214120       0.14017860       0.68369120
    61  C          0.87780120       0.40645140       0.77822120
    62  C          0.12219880       0.59354860       0.27822120
    63  C          0.62219880       0.90645140       0.27822120
    64  C          0.37780120       0.09354860       0.77822120
    65  H          0.93130000       0.48460000       0.76490000
    66  H          0.06870000       0.51540000       0.26490000
    67  H          0.56870000       0.98460000       0.26490000
    68  H          0.43130000       0.01540000       0.76490000
    69  C          0.87503120       0.33834140       0.89253120
    70  C          0.12496880       0.66165860       0.39253120
    71  C          0.62496880       0.83834140       0.39253120
    72  C          0.37503120       0.16165860       0.89253120
    73  C          0.79740120       0.22201150       0.91350120
    74  C          0.20259880       0.77798850       0.41350120
    75  C          0.70259880       0.72201150       0.41350120
    76  C          0.29740120       0.27798850       0.91350120
    77  H          0.79720000       0.17430000      -0.00890000
    78  H          0.20280000       0.82570000       0.49110000
    79  H          0.70280000       0.67430000       0.49110000
    80  H          0.29720000       0.32570000      -0.00890000
    81  C          0.72113130       0.17805150       0.81895130
    82  C          0.27886870       0.82194850       0.31895130
    83  C          0.77886870       0.67805150       0.31895130
    84  C          0.22113130       0.32194850       0.81895130
    85  H          0.66730000       0.10040000       0.83320000
    86  H          0.33270000       0.89960000       0.33320000
    87  H          0.83270000       0.60040000       0.33320000
    88  H          0.16730000       0.39960000       0.83320000
    89  C          0.52413130       0.48435150       0.18837140
    90  C          0.47586870       0.51564850       0.68837140
    91  C          0.97586870       0.98435150       0.68837140
    92  C          0.02413130       0.01564850       0.18837140
    93  H          0.53840000       0.58540000       0.21060000
    94  H          0.46160000       0.41460000       0.71060000
    95  H          0.96160000       0.08540000       0.71060000
    96  H          0.03840000       0.91460000       0.21060000
    97  H          0.43680000       0.47340000       0.16750000
    98  H          0.56320000       0.52660000       0.66750000
    99  H          0.06320000       0.97340000       0.66750000
   100  H          0.93680000       0.02660000       0.16750000
   101  C          0.60067140       0.44671170       0.07574150
   102  C          0.39932860       0.55328830       0.57574150
   103  C          0.89932860       0.94671170       0.57574150
   104  C          0.10067140       0.05328830       0.07574150
   105  H          0.68700000       0.46140000       0.09480000
   106  H          0.31300000       0.53860000       0.59480000
   107  H          0.81300000       0.96140000       0.59480000
   108  H          0.18700000       0.03860000       0.09480000
   109  H          0.57720000       0.50780000       0.00610000
   110  H          0.42280000       0.49220000       0.50610000
   111  H          0.92280000       0.00780000       0.50610000
   112  H          0.07720000      -0.00780000       0.00610000
   113  H          0.58710000       0.34660000       0.05360000
   114  H          0.41290000       0.65340000       0.55360000
   115  H          0.91290000       0.84660000       0.55360000
   116  H          0.08710000       0.15340000       0.05360000
