data_IFUXEN
_symmetry_space_group_name_H-M    'P1'
_symmetry_Int_Tables_number       1
loop_
_symmetry_equiv_pos_site_id
_symmetry_equiv_pos_as_xyz
1 x,y,z
_cell_length_a                   4.65926
_cell_length_b                   24.0673
_cell_length_c                   10.0471
_cell_angle_alpha                90.0
_cell_angle_beta                 99.0602
_cell_angle_gamma                90.0
loop_
_atom_site_label
_atom_site_type_symbol
_atom_site_fract_x
_atom_site_fract_y
_atom_site_fract_z
     1  S          0.01421110       0.51427619       0.28484500
     2  S          0.48578890       0.01427619       0.21515500
     3  S         -0.01421110       0.48572381       0.71515500
     4  S          0.51421110       0.98572381       0.78484500
     5  O          0.14803000       0.32859600       0.28304130
     6  O          0.35197000       0.82859600       0.21695870
     7  O          0.85197000       0.67140400       0.71695870
     8  O          0.64803000       0.17140400       0.78304130
     9  H          0.27070000       0.35440000       0.29080000
    10  H          0.22930000       0.85440000       0.20920000
    11  H          0.72930000       0.64560000       0.70920000
    12  H          0.77070000       0.14560000       0.79080000
    13  O          0.59957000       0.21979500       0.53651130
    14  O          0.90043000       0.71979500       0.96348870
    15  O          0.40043000       0.78020500       0.46348870
    16  O          0.09957000       0.28020500       0.03651130
    17  H          0.58480000       0.21170000       0.61650000
    18  H          0.91520000       0.71170000       0.88350000
    19  H          0.41520000       0.78830000       0.38350000
    20  H          0.08480000       0.28830000       0.11650000
    21  N          0.68254000       0.43087700       0.17727160
    22  N          0.81746000       0.93087700       0.32272840
    23  N          0.31746000       0.56912300       0.82272840
    24  N          0.18254000       0.06912300       0.67727160
    25  H          0.54950000       0.40560000       0.18450000
    26  H          0.95050000       0.90560000       0.31550000
    27  H          0.45050000       0.59440000       0.81550000
    28  H          0.04950000       0.09440000       0.68450000
    29  N          0.67913000       0.44770600       0.40159150
    30  N          0.82087000       0.94770600       0.09840850
    31  N          0.32087000       0.55229400       0.59840850
    32  N          0.17913000       0.05229400       0.90159150
    33  H          0.73780000       0.46660000       0.47600000
    34  H          0.76220000       0.96660000       0.02400000
    35  H          0.26220000       0.53340000       0.52400000
    36  H          0.23780000       0.03340000       0.97600000
    37  N          0.48543000       0.40468600       0.40248150
    38  N          0.01457000       0.90468600       0.09751850
    39  N          0.51457000       0.59531400       0.59751850
    40  N         -0.01457000       0.09531400       0.90248150
    41  C          0.62655000       0.39432900       0.94958000
    42  C          0.87345000       0.89432900       0.55042000
    43  C          0.37345000       0.60567100       0.05042000
    44  C          0.12655000       0.10567100       0.44958000
    45  H          0.69850000       0.39710000       0.86330000
    46  H          0.80150000       0.89710000       0.63670000
    47  H          0.30150000       0.60290000       0.13670000
    48  H          0.19850000       0.10290000       0.36330000
    49  H          0.41690000       0.40150000       0.93560000
    50  H          0.08310000       0.90150000       0.56440000
    51  H          0.58310000       0.59850000       0.06440000
    52  H          0.91690000       0.09850000       0.43560000
    53  H          0.66440000       0.35690000      -0.01320000
    54  H          0.83560000       0.85690000       0.51320000
    55  H          0.33560000       0.64310000       0.01320000
    56  H          0.16440000       0.14310000       0.48680000
    57  C          0.78045000       0.43673900       0.04712000
    58  C          0.71955000       0.93673900       0.45288000
    59  C          0.21955000       0.56326100       0.95288000
    60  C          0.28045000       0.06326100       0.54712000
    61  H         -0.00680000       0.43090000       0.05780000
    62  H          0.50680000       0.93090000       0.44220000
    63  H          0.00680000       0.56910000       0.94220000
    64  H          0.49320000       0.06910000       0.55780000
    65  H          0.73710000       0.47470000       0.01150000
    66  H          0.76290000       0.97470000       0.48850000
    67  H          0.26290000       0.52530000      -0.01150000
    68  H          0.23710000       0.02530000       0.51150000
    69  C          0.78004000       0.46113700       0.28620180
    70  C          0.71996000       0.96113700       0.21379820
    71  C          0.21996000       0.53886300       0.71379820
    72  C          0.28004000       0.03886300       0.78620180
    73  C          0.39054000       0.39384700       0.51361170
    74  C          0.10946000       0.89384700      -0.01361170
    75  C          0.60946000       0.60615300       0.48638830
    76  C          0.89054000       0.10615300       0.01361170
    77  H          0.45680000       0.41520000       0.59200000
    78  H          0.04320000       0.91520000       0.90800000
    79  H          0.54320000       0.58480000       0.40800000
    80  H          0.95680000       0.08480000       0.09200000
    81  C          0.18344000       0.34936700       0.51966180
    82  C          0.31656000       0.84936700       0.98033820
    83  C          0.81656000       0.65063300       0.48033820
    84  C          0.68344000       0.15063300       0.01966180
    85  C          0.06904000       0.31772700       0.40586180
    86  C          0.43096000       0.81772700       0.09413820
    87  C          0.93096000       0.68227300       0.59413820
    88  C          0.56904000       0.18227300       0.90586180
    89  C          0.87546000       0.27525800       0.41357190
    90  C          0.62454000       0.77525800       0.08642810
    91  C          0.12454000       0.72474200       0.58642810
    92  C          0.37546000       0.22474200       0.91357190
    93  H          0.80170000       0.25450000       0.33520000
    94  H          0.69830000       0.75450000       0.16480000
    95  H          0.19830000       0.74550000       0.66480000
    96  H          0.30170000       0.24550000       0.83520000
    97  C          0.78786000       0.26265700       0.53563180
    98  C          0.71214000       0.76265700       0.96436820
    99  C          0.21214000       0.73734300       0.46436820
   100  C          0.28786000       0.23734300       0.03563180
   101  C          0.89076000       0.29412700       0.65039180
   102  C          0.60924000       0.79412700       0.84960820
   103  C          0.10924000       0.70587300       0.34960820
   104  C          0.39076000       0.20587300       0.15039180
   105  H          0.82710000       0.28640000       0.73380000
   106  H          0.67290000       0.78640000       0.76620000
   107  H          0.17290000       0.71360000       0.26620000
   108  H          0.32710000       0.21360000       0.23380000
   109  C          0.08574000       0.33653700       0.64102180
   110  C          0.41426000       0.83653700       0.85897820
   111  C          0.91426000       0.66346300       0.35897820
   112  C          0.58574000       0.16346300       0.14102180
   113  H          0.15600000       0.35770000       0.71920000
   114  H          0.34400000       0.85770000       0.78080000
   115  H          0.84400000       0.64230000       0.28080000
   116  H          0.65600000       0.14230000       0.21920000
