data_IFUXEN02
_symmetry_space_group_name_H-M    'P1'
_symmetry_Int_Tables_number       1
loop_
_symmetry_equiv_pos_site_id
_symmetry_equiv_pos_as_xyz
1 x,y,z
_cell_length_a                   4.88671
_cell_length_b                   25.5134
_cell_length_c                   9.027215
_cell_angle_alpha                90.0
_cell_angle_beta                 94.8212
_cell_angle_gamma                90.0
loop_
_atom_site_label
_atom_site_type_symbol
_atom_site_fract_x
_atom_site_fract_y
_atom_site_fract_z
     1  S          0.20692120       0.48314200       0.71931600
     2  S          0.79307880       0.98314200       0.78068400
     3  S          0.79307880       0.51685800       0.28068400
     4  S          0.20692120       0.01685800       0.21931600
     5  O          0.56073000       0.68929700       0.75050180
     6  O          0.43927000       0.18929700       0.74949820
     7  O          0.43927000       0.31070300       0.24949820
     8  O          0.56073000       0.81070300       0.25050180
     9  H          0.64360000       0.66241300       0.73730000
    10  H          0.35640000       0.16241300       0.76270000
    11  H          0.35640000       0.33758700       0.26270000
    12  H          0.64360000       0.83758700       0.23730000
    13  O          0.82326000       0.78482700       0.51898190
    14  O          0.17674000       0.28482700       0.98101810
    15  O          0.17674000       0.21517300       0.48101810
    16  O          0.82326000       0.71517300       0.01898190
    17  H          0.71140000       0.78621200       0.43940000
    18  H          0.28860000       0.28621200       0.06060000
    19  H          0.28860000       0.21378800       0.56060000
    20  H          0.71140000       0.71378800       0.93940000
    21  N          0.81354000       0.55028800       0.63862000
    22  N          0.18646000       0.05028800       0.86138000
    23  N          0.18646000       0.44971200       0.36138000
    24  N          0.81354000       0.94971200       0.13862000
    25  H          0.79460000       0.53041100       0.55230000
    26  H          0.20540000       0.03041100       0.94770000
    27  H          0.20540000       0.46958900       0.44770000
    28  H          0.79460000       0.96958900       0.05230000
    29  N          0.66294000       0.59544800       0.64942000
    30  N          0.33706000       0.09544800       0.85058000
    31  N          0.33706000       0.40455200       0.35058000
    32  N          0.66294000       0.90455200       0.14942000
    33  N          0.06124000       0.56962900       0.85902000
    34  N          0.93876000       0.06962900       0.64098000
    35  N          0.93876000       0.43037100       0.14098000
    36  N          0.06124000       0.93037100       0.35902000
    37  H          0.95760000       0.59681200       0.86130000
    38  H          0.04240000       0.09681200       0.63870000
    39  H          0.04240000       0.40318800       0.13870000
    40  H          0.95760000       0.90318800       0.36130000
    41  C          0.01955000       0.53820100       0.74223000
    42  C         -0.01955000       0.03820100       0.75777000
    43  C         -0.01955000       0.46179900       0.25777000
    44  C          0.01955000       0.96179900       0.24223000
    45  C          0.45635000       0.60146100       0.55122000
    46  C          0.54365000       0.10146100       0.94878000
    47  C          0.54365000       0.39853900       0.44878000
    48  C          0.45635000       0.89853900       0.05122000
    49  H          0.41210000       0.57430000       0.48140000
    50  H          0.58790000       0.07430000       0.01860000
    51  H          0.58790000       0.42570000       0.51860000
    52  H          0.41210000       0.92570000       0.98140000
    53  C          0.29154000       0.64861900       0.54552000
    54  C          0.70846000       0.14861900       0.95448000
    55  C          0.70846000       0.35138100       0.45448000
    56  C          0.29154000       0.85138100       0.04552000
    57  C          0.34715000       0.69122900       0.64322000
    58  C          0.65285000       0.19122900       0.85678000
    59  C          0.65285000       0.30877100       0.35678000
    60  C          0.34715000       0.80877100       0.14322000
    61  C          0.19115000       0.73634100       0.63182000
    62  C          0.80885000       0.23634100       0.86818000
    63  C          0.80885000       0.26365900       0.36818000
    64  C          0.19115000       0.76365900       0.13182000
    65  H          0.23270000       0.76480000       0.69770000
    66  H          0.76730000       0.26480000       0.80230000
    67  H          0.76730000       0.23520000       0.30230000
    68  H          0.23270000       0.73520000       0.19770000
    69  C         -0.02755000       0.73989900       0.52332000
    70  C          0.02755000       0.23989900       0.97668000
    71  C          0.02755000       0.26010100       0.47668000
    72  C         -0.02755000       0.76010100       0.02332000
    73  C          0.91205000       0.69843100       0.42433000
    74  C          0.08795000       0.19843100       0.07567000
    75  C          0.08795000       0.30156900       0.57567000
    76  C          0.91205000       0.80156900       0.92433000
    77  H          0.76400000       0.70110000       0.34950000
    78  H          0.23600000       0.20110000       0.15050000
    79  H          0.23600000       0.29890000       0.65050000
    80  H          0.76400000       0.79890000       0.84950000
    81  C          0.07065000       0.65374100       0.43703000
    82  C          0.92935000       0.15374100       0.06297000
    83  C          0.92935000       0.34625900       0.56297000
    84  C          0.07065000       0.84625900       0.93703000
    85  H          0.02890000       0.62550000       0.37020000
    86  H         -0.02890000       0.12550000       0.12980000
    87  H         -0.02890000       0.37450000       0.62980000
    88  H          0.02890000       0.87450000       0.87020000
    89  C          0.27735000       0.56262100       0.97983000
    90  C          0.72265000       0.06262100       0.52017000
    91  C          0.72265000       0.43737900       0.02017000
    92  C          0.27735000       0.93737900       0.47983000
    93  H          0.45180000       0.55300000       0.93850000
    94  H          0.54820000       0.05300000       0.56150000
    95  H          0.54820000       0.44700000       0.06150000
    96  H          0.45180000       0.94700000       0.43850000
    97  H          0.22650000       0.53400000       0.04640000
    98  H          0.77350000       0.03400000       0.45360000
    99  H          0.77350000       0.46600000       0.95360000
   100  H          0.22650000       0.96600000       0.54640000
   101  C          0.31316000       0.61324110       0.06643000
   102  C          0.68684000       0.11324110       0.43357000
   103  C          0.68684000       0.38675890       0.93357000
   104  C          0.31316000       0.88675890       0.56643000
   105  H          0.36620000       0.64130000       0.00020000
   106  H          0.63380000       0.14130000       0.49980000
   107  H          0.63380000       0.35870000      -0.00020000
   108  H          0.36620000       0.85870000       0.50020000
   109  H          0.45660000       0.60880000       0.14800000
   110  H          0.54340000       0.10880000       0.35200000
   111  H          0.54340000       0.39120000       0.85200000
   112  H          0.45660000       0.89120000       0.64800000
   113  H          0.13980000       0.62250000       0.10700000
   114  H          0.86020000       0.12250000       0.39300000
   115  H          0.86020000       0.37750000       0.89300000
   116  H          0.13980000       0.87750000       0.60700000
