data_IHXNAQ02
_symmetry_space_group_name_H-M    'P1'
_symmetry_Int_Tables_number       1
loop_
_symmetry_equiv_pos_site_id
_symmetry_equiv_pos_as_xyz
1 x,y,z
_cell_length_a                   15.7257
_cell_length_b                   14.1036
_cell_length_c                   14.1886
_cell_angle_alpha                90.0
_cell_angle_beta                 115.4846
_cell_angle_gamma                90.0
loop_
_atom_site_label
_atom_site_type_symbol
_atom_site_fract_x
_atom_site_fract_y
_atom_site_fract_z
     1  I          0.00222518       0.29076200       0.42381818
     2  I          0.00222518       0.70923800       0.92381818
     3  I          0.50222518       0.79076200       0.42381818
     4  I          0.50222518       0.20923800       0.92381818
     5  O          0.25743000       0.13473000       0.77523000
     6  O          0.25743000       0.86527000       0.27523000
     7  O          0.75743000       0.63473000       0.77523000
     8  O          0.75743000       0.36527000       0.27523000
     9  O          0.10733000       0.24563000       0.66803000
    10  O          0.10733000       0.75437000       0.16803000
    11  O          0.60733000       0.74563000       0.66803000
    12  O          0.60733000       0.25437000       0.16803000
    13  H          0.13040000       0.23650000       0.73001800
    14  H          0.13040000       0.76350000       0.23001800
    15  H          0.63040000       0.73650000       0.73001800
    16  H          0.63040000       0.26350000       0.23001800
    17  O          0.12763000       0.15543000       0.36072000
    18  O          0.12763000       0.84457000       0.86072000
    19  O          0.62763000       0.65543000       0.36072000
    20  O          0.62763000       0.34457000       0.86072000
    21  C          0.22964000       0.13523000       0.68234000
    22  C          0.22964000       0.86477000       0.18234000
    23  C          0.72964000       0.63523000       0.68234000
    24  C          0.72964000       0.36477000       0.18234000
    25  C          0.14653000       0.19713000       0.61643000
    26  C          0.14653000       0.80287000       0.11643000
    27  C          0.64653000       0.69713000       0.61643000
    28  C          0.64653000       0.30287000       0.11643000
    29  C          0.11613000       0.20423000       0.51243000
    30  C          0.11613000       0.79577000       0.01243000
    31  C          0.61613000       0.70423000       0.51243000
    32  C          0.61613000       0.29577000       0.01243000
    33  C          0.15693000       0.14883000       0.45543000
    34  C          0.15693000       0.85117000       0.95543000
    35  C          0.65693000       0.64883000       0.45543000
    36  C          0.65693000       0.35117000       0.95543000
    37  C          0.27534000       0.02504000       0.46514000
    38  C          0.27534000       0.97496000       0.96514000
    39  C          0.77534000       0.52504000       0.46514000
    40  C          0.77534000       0.47496000       0.96514000
    41  H          0.25130000       0.02670000       0.39270000
    42  H          0.25130000       0.97330000       0.89270000
    43  H          0.75130000       0.52670000       0.39270000
    44  H          0.75130000       0.47330000       0.89270000
    45  C          0.34934000       0.96526000       0.52264000
    46  C          0.34934000       0.03474000       0.02264000
    47  C          0.84934000       0.46526000       0.52264000
    48  C          0.84934000       0.53474000       0.02264000
    49  H          0.37450000       0.92640000       0.48820000
    50  H          0.37450000       0.07360000       0.98820000
    51  H          0.87450000       0.42640000       0.48820000
    52  H          0.87450000       0.57360000       0.98820000
    53  C          0.38674000       0.96237000       0.63104000
    54  C          0.38674000       0.03763000       0.13104000
    55  C          0.88674000       0.46237000       0.63104000
    56  C          0.88674000       0.53763000       0.13104000
    57  H          0.43780000       0.92340000       0.66870000
    58  H          0.43780000       0.07660000       0.16870000
    59  H          0.93780000       0.42340000       0.66870000
    60  H          0.93780000       0.57660000       0.16870000
    61  C          0.34704000       0.01834000       0.68274000
    62  C          0.34704000       0.98166000       0.18274000
    63  C          0.84704000       0.51834000       0.68274000
    64  C          0.84704000       0.48166000       0.18274000
    65  H          0.37050000       0.01560000       0.75500000
    66  H          0.37050000       0.98440000       0.25500000
    67  H          0.87050000       0.51560000       0.75500000
    68  H          0.87050000       0.48440000       0.25500000
    69  C          0.23673000       0.08343000       0.51794000
    70  C          0.23673000       0.91657000       0.01794000
    71  C          0.73673000       0.58343000       0.51794000
    72  C          0.73673000       0.41657000       0.01794000
    73  C          0.27213000       0.07833000       0.62553000
    74  C          0.27213000       0.92167000       0.12553000
    75  C          0.77213000       0.57833000       0.62553000
    76  C          0.77213000       0.42167000       0.12553000
    77  I          0.34127919       0.61699200       0.20865200
    78  I          0.34127919       0.38300800       0.70865200
    79  I          0.84127919       0.11699200       0.20865200
    80  I          0.84127919       0.88300800       0.70865200
    81  O          0.07803000       0.46513000       0.86088000
    82  O          0.07803000       0.53487000       0.36088000
    83  O          0.57803000       0.96513000       0.86088000
    84  O          0.57803000       0.03487000       0.36088000
    85  O          0.23033000       0.57383000       0.96517000
    86  O          0.23033000       0.42617000       0.46517000
    87  O          0.73033000       0.07383000       0.96517000
    88  O          0.73033000       0.92617000       0.46517000
    89  H          0.20530000       0.55430000       0.90680000
    90  H          0.20530000       0.44570000       0.40680000
    91  H          0.70530000       0.05430000       0.90680000
    92  H          0.70530000       0.94570000       0.40680000
    93  O          0.22293000       0.47783000       0.27682000
    94  O          0.22293000       0.52217000       0.77682000
    95  O          0.72293000       0.97783000       0.27682000
    96  O          0.72293000       0.02217000       0.77682000
    97  C          0.10753000       0.46603000       0.95537000
    98  C          0.10753000       0.53397000       0.45537000
    99  C          0.60753000       0.96603000       0.95537000
   100  C          0.60753000       0.03397000       0.45537000
   101  C          0.19203000       0.52493000       0.01873000
   102  C          0.19203000       0.47507000       0.51873000
   103  C          0.69203000       0.02493000       0.01873000
   104  C          0.69203000       0.97507000       0.51873000
   105  C          0.22713000       0.53073000       0.12243000
   106  C          0.22713000       0.46927000       0.62243000
   107  C          0.72713000       0.03073000       0.12243000
   108  C          0.72713000       0.96927000       0.62243000
   109  C          0.18693000       0.47443000       0.18203000
   110  C          0.18693000       0.52557000       0.68203000
   111  C          0.68693000       0.97443000       0.18203000
   112  C          0.68693000       0.02557000       0.68203000
   113  C          0.06494000       0.35954000       0.17344000
   114  C          0.06494000       0.64046000       0.67344000
   115  C          0.56494000       0.85954000       0.17344000
   116  C          0.56494000       0.14046000       0.67344000
   117  H          0.09150000       0.36010000       0.24600000
   118  H          0.09150000       0.63990000       0.74600000
   119  H          0.59150000       0.86010000       0.24600000
   120  H          0.59150000       0.13990000       0.74600000
   121  C          0.98636000       0.30394000       0.11815000
   122  C          0.98636000       0.69606000       0.61815000
   123  C          0.48636000       0.80394000       0.11815000
   124  C          0.48636000       0.19606000       0.61815000
   125  H          0.96060000       0.26750000       0.15400000
   126  H          0.96060000       0.73250000       0.65400000
   127  H          0.46060000       0.76750000       0.15400000
   128  H          0.46060000       0.23250000       0.65400000
   129  C          0.94616000       0.30204000       0.01095000
   130  C          0.94616000       0.69796000       0.51095000
   131  C          0.44616000       0.80204000       0.01095000
   132  C          0.44616000       0.19796000       0.51095000
   133  H          0.89280000       0.26550000       0.97460000
   134  H          0.89280000       0.73450000       0.47460000
   135  H          0.39280000       0.76550000       0.97460000
   136  H          0.39280000       0.23450000       0.47460000
   137  C          0.98497000       0.35414000       0.95726000
   138  C          0.98497000       0.64586000       0.45726000
   139  C          0.48497000       0.85414000       0.95726000
   140  C          0.48497000       0.14586000       0.45726000
   141  H          0.95880000       0.35180000       0.88480000
   142  H          0.95880000       0.64820000       0.38480000
   143  H          0.45880000       0.85180000       0.88480000
   144  H          0.45880000       0.14820000       0.38480000
   145  C          0.10343000       0.41373000       0.12103000
   146  C          0.10343000       0.58627000       0.62103000
   147  C          0.60343000       0.91373000       0.12103000
   148  C          0.60343000       0.08627000       0.62103000
   149  C          0.06453000       0.41103000       0.01283000
   150  C          0.06453000       0.58897000       0.51283000
   151  C          0.56453000       0.91103000       0.01283000
   152  C          0.56453000       0.08897000       0.51283000
   153  I         -0.00075719       0.05324200       0.93079800
   154  I         -0.00075719       0.94675800       0.43079800
   155  I          0.49924281       0.55324200       0.93079800
   156  I          0.49924281       0.44675800       0.43079800
   157  O          0.27303000       0.19643000       0.27352000
   158  O          0.27303000       0.80357000       0.77352000
   159  O          0.77303000       0.69643000       0.27352000
   160  O          0.77303000       0.30357000       0.77352000
   161  O          0.11883000       0.09163000       0.17393000
   162  O          0.11883000       0.90837000       0.67393000
   163  O          0.61883000       0.59163000       0.17393000
   164  O          0.61883000       0.40837000       0.67393000
   165  H          0.15010000       0.10250000       0.23610000
   166  H          0.15010000       0.89750000       0.73610000
   167  H          0.65010000       0.60250000       0.23610000
   168  H          0.65010000       0.39750000       0.73610000
   169  O          0.11203000       0.19653000       0.85698000
   170  O          0.11203000       0.80347000       0.35698000
   171  O          0.61203000       0.69653000       0.85698000
   172  O          0.61203000       0.30347000       0.35698000
   173  C          0.23943000       0.20023000       0.17933000
   174  C          0.23943000       0.79977000       0.67933000
   175  C          0.73943000       0.70023000       0.17933000
   176  C          0.73943000       0.29977000       0.67933000
   177  C          0.15283000       0.14133000       0.11813000
   178  C          0.15283000       0.85867000       0.61813000
   179  C          0.65283000       0.64133000       0.11813000
   180  C          0.65283000       0.35867000       0.61813000
   181  C          0.11613000       0.13793000       0.01373000
   182  C          0.11613000       0.86207000       0.51373000
   183  C          0.61613000       0.63793000       0.01373000
   184  C          0.61613000       0.36207000       0.51373000
   185  C          0.15073000       0.19583000       0.95267000
   186  C          0.15073000       0.80417000       0.45267000
   187  C          0.65073000       0.69583000       0.95267000
   188  C          0.65073000       0.30417000       0.45267000
   189  C          0.27254000       0.31163000       0.95626000
   190  C          0.27254000       0.68837000       0.45626000
   191  C          0.77254000       0.81163000       0.95626000
   192  C          0.77254000       0.18837000       0.45626000
   193  H          0.24380000       0.31280000       0.88370000
   194  H          0.24380000       0.68720000       0.38370000
   195  H          0.74380000       0.81280000       0.88370000
   196  H          0.74380000       0.18720000       0.38370000
   197  C          0.35284000       0.36574000       0.01216000
   198  C          0.35284000       0.63426000       0.51216000
   199  C          0.85284000       0.86574000       0.01216000
   200  C          0.85284000       0.13426000       0.51216000
   201  H          0.37800000       0.40280000       0.97620000
   202  H          0.37800000       0.59720000       0.47620000
   203  H          0.87800000       0.90280000       0.97620000
   204  H          0.87800000       0.09720000       0.47620000
   205  C          0.39574000       0.36494000       0.12015000
   206  C          0.39574000       0.63506000       0.62015000
   207  C          0.89574000       0.86494000       0.12015000
   208  C          0.89574000       0.13506000       0.62015000
   209  H          0.44910000       0.40160000       0.15600000
   210  H          0.44910000       0.59840000       0.65600000
   211  H          0.94910000       0.90160000       0.15600000
   212  H          0.94910000       0.09840000       0.65600000
   213  C          0.35914000       0.30924000       0.17565000
   214  C          0.35914000       0.69076000       0.67565000
   215  C          0.85914000       0.80924000       0.17565000
   216  C          0.85914000       0.19076000       0.67565000
   217  H          0.38810000       0.30760000       0.24820000
   218  H          0.38810000       0.69240000       0.74820000
   219  H          0.88810000       0.80760000       0.24820000
   220  H          0.88810000       0.19240000       0.74820000
   221  C          0.23593000       0.25603000       0.01113000
   222  C          0.23593000       0.74397000       0.51113000
   223  C          0.73593000       0.75603000       0.01113000
   224  C          0.73593000       0.24397000       0.51113000
   225  C          0.27863000       0.25643000       0.11973000
   226  C          0.27863000       0.74357000       0.61973000
   227  C          0.77863000       0.75643000       0.11973000
   228  C          0.77863000       0.24357000       0.61973000
