data_IHXNAQ03
_symmetry_space_group_name_H-M    'P1'
_symmetry_Int_Tables_number       1
loop_
_symmetry_equiv_pos_site_id
_symmetry_equiv_pos_as_xyz
1 x,y,z
_cell_length_a                   37.7666
_cell_length_b                   4.94738
_cell_length_c                   15.8363
_cell_angle_alpha                90.0
_cell_angle_beta                 106.0252
_cell_angle_gamma                90.0
loop_
_atom_site_label
_atom_site_type_symbol
_atom_site_fract_x
_atom_site_fract_y
_atom_site_fract_z
     1  I          0.58072417       0.05304110       0.58454300
     2  I          0.58072417       0.94695890       0.08454300
     3  I          0.08072417       0.55304110       0.58454300
     4  I          0.08072417       0.44695890       0.08454300
     5  O          0.56618190       0.67631600       0.26393000
     6  O          0.56618190       0.32368400       0.76393000
     7  O          0.06618190       0.17631600       0.26393000
     8  O          0.06618190       0.82368400       0.76393000
     9  O          0.54886190      -0.00428400       0.37794000
    10  O          0.54886190       0.00428400       0.87794000
    11  O          0.04886190       0.49571600       0.37794000
    12  O          0.04886190       0.50428400       0.87794000
    13  H          0.54060000      -0.02290000       0.32460000
    14  H          0.54060000       0.02290000       0.82460000
    15  H          0.04060000       0.47710000       0.32460000
    16  H          0.04060000       0.52290000       0.82460000
    17  O          0.64701160       0.63841300       0.59843000
    18  O          0.64701160       0.36158700       0.09843000
    19  O          0.14701160       0.13841300       0.59843000
    20  O          0.14701160       0.86158700       0.09843000
    21  C          0.58642000       0.65651800       0.33995000
    22  C          0.58642000       0.34348200       0.83995000
    23  C          0.08642000       0.15651800       0.33995000
    24  C          0.08642000       0.84348200       0.83995000
    25  C          0.57662000       0.83001700       0.40725000
    26  C          0.57662000       0.16998300       0.90725000
    27  C          0.07662000       0.33001700       0.40725000
    28  C          0.07662000       0.66998300       0.90725000
    29  C          0.59592000       0.81461600       0.49274000
    30  C          0.59592000       0.18538400      -0.00726000
    31  C          0.09592000       0.31461600       0.49274000
    32  C          0.09592000       0.68538400      -0.00726000
    33  C          0.62822000       0.64011500       0.52215000
    34  C          0.62822000       0.35988500       0.02215000
    35  C          0.12822000       0.14011500       0.52215000
    36  C          0.12822000       0.85988500       0.02215000
    37  C          0.66622000       0.28051900       0.48146000
    38  C          0.66622000       0.71948100       0.98146000
    39  C          0.16622000       0.78051900       0.48146000
    40  C          0.16622000       0.21948100       0.98146000
    41  H          0.67960000       0.27140000       0.54020000
    42  H          0.67960000       0.72860000       0.04020000
    43  H          0.17960000       0.77140000       0.54020000
    44  H          0.17960000       0.22860000       0.04020000
    45  C          0.67533000       0.11311900       0.42229000
    46  C          0.67533000       0.88688100       0.92229000
    47  C          0.17533000       0.61311900       0.42229000
    48  C          0.17533000       0.38688100       0.92229000
    49  H          0.69390000      -0.01400000       0.44220000
    50  H          0.69390000       0.01400000       0.94220000
    51  H          0.19390000       0.48600000       0.44220000
    52  H          0.19390000       0.51400000       0.94220000
    53  C          0.65783000       0.12720000       0.33357000
    54  C          0.65783000       0.87280000       0.83357000
    55  C          0.15783000       0.62720000       0.33357000
    56  C          0.15783000       0.37280000       0.83357000
    57  H          0.66490000       0.01840000       0.29320000
    58  H          0.66490000      -0.01840000       0.79320000
    59  H          0.16490000       0.51840000       0.29320000
    60  H          0.16490000       0.48160000       0.79320000
    61  C          0.62783000       0.31720000       0.30616000
    62  C          0.62783000       0.68280000       0.80616000
    63  C          0.12783000       0.81720000       0.30616000
    64  C          0.12783000       0.18280000       0.80616000
    65  H          0.61540000       0.33350000       0.24680000
    66  H          0.61540000       0.66650000       0.74680000
    67  H          0.11540000       0.83350000       0.24680000
    68  H          0.11540000       0.16650000       0.74680000
    69  C          0.63772000       0.46231700       0.45605000
    70  C          0.63772000       0.53768300       0.95605000
    71  C          0.13772000       0.96231700       0.45605000
    72  C          0.13772000       0.03768300       0.95605000
    73  C          0.61752000       0.47341600       0.36685000
    74  C          0.61752000       0.52658400       0.86685000
    75  C          0.11752000      -0.02658400       0.36685000
    76  C          0.11752000       0.02658400       0.86685000
    77  I          0.75772217       0.63405110       0.42001300
    78  I          0.75772217       0.36594890       0.92001300
    79  I          0.25772217       0.13405110       0.42001300
    80  I          0.25772217       0.86594890       0.92001300
    81  O          0.72562000       0.18821600       0.10174000
    82  O          0.72562000       0.81178400       0.60174000
    83  O          0.22562000       0.68821600       0.10174000
    84  O          0.22562000       0.31178400       0.60174000
    85  O          0.71078160       0.51061400       0.22344000
    86  O          0.71078160       0.48938600       0.72344000
    87  O          0.21078160       0.01061400       0.22344000
    88  O          0.21078160      -0.01061400       0.72344000
    89  H          0.69890000       0.47490000       0.17290000
    90  H          0.69890000       0.52510000       0.67290000
    91  H          0.19890000      -0.02510000       0.17290000
    92  H          0.19890000       0.02510000       0.67290000
    93  O          0.82349170       0.24691700       0.41654000
    94  O          0.82349170       0.75308300       0.91654000
    95  O          0.32349170       0.74691700       0.41654000
    96  O          0.32349170       0.25308300       0.91654000
    97  C          0.74862000       0.18841900       0.17335000
    98  C          0.74862000       0.81158100       0.67335000
    99  C          0.24862000       0.68841900       0.17335000
   100  C          0.24862000       0.31158100       0.67335000
   101  C          0.74202000       0.36911500       0.24395000
   102  C          0.74202000       0.63088500       0.74395000
   103  C          0.24202000       0.86911500       0.24395000
   104  C          0.24202000       0.13088500       0.74395000
   105  C          0.76702000       0.38781500       0.32295000
   106  C          0.76702000       0.61218500       0.82295000
   107  C          0.26702000       0.88781500       0.32295000
   108  C          0.26702000       0.11218500       0.82295000
   109  C          0.80162000       0.23091700       0.34385000
   110  C          0.80162000       0.76908300       0.84385000
   111  C          0.30162000       0.73091700       0.34385000
   112  C          0.30162000       0.26908300       0.84385000
   113  C          0.83953000       0.89378200       0.29317000
   114  C          0.83953000       0.10621800       0.79317000
   115  C          0.33953000       0.39378200       0.29317000
   116  C          0.33953000       0.60621800       0.79317000
   117  H          0.85730000       0.91110000       0.34680000
   118  H          0.85730000       0.08890000       0.84680000
   119  H          0.35730000       0.41110000       0.34680000
   120  H          0.35730000       0.58890000       0.84680000
   121  C          0.84513000       0.71480000       0.23107000
   122  C          0.84513000       0.28520000       0.73107000
   123  C          0.34513000       0.21480000       0.23107000
   124  C          0.34513000       0.78520000       0.73107000
   125  H          0.86620000       0.60820000       0.24360000
   126  H          0.86620000       0.39180000       0.74360000
   127  H          0.36620000       0.10820000       0.24360000
   128  H          0.36620000       0.89180000       0.74360000
   129  C          0.81923000       0.69380000       0.14997000
   130  C          0.81923000       0.30620000       0.64997000
   131  C          0.31923000       0.19380000       0.14997000
   132  C          0.31923000       0.80620000       0.64997000
   133  H          0.82320000       0.57520000       0.10790000
   134  H          0.82320000       0.42480000       0.60790000
   135  H          0.32320000       0.07520000       0.10790000
   136  H          0.32320000       0.92480000       0.60790000
   137  C          0.78823000       0.84348100       0.13146000
   138  C          0.78823000       0.15651900       0.63146000
   139  C          0.28823000       0.34348100       0.13146000
   140  C          0.28823000       0.65651900       0.63146000
   141  H          0.77090000       0.82690000       0.07700000
   142  H          0.77090000       0.17310000       0.57700000
   143  H          0.27090000       0.32690000       0.07700000
   144  H          0.27090000       0.67310000       0.57700000
   145  C          0.80792000       0.04681700       0.27595000
   146  C          0.80792000       0.95318300       0.77595000
   147  C          0.30792000       0.54681700       0.27595000
   148  C          0.30792000       0.45318300       0.77595000
   149  C          0.78212000       0.02261800       0.19335000
   150  C          0.78212000      -0.02261800       0.69335000
   151  C          0.28212000       0.52261800       0.19335000
   152  C          0.28212000       0.47738200       0.69335000
   153  I          0.97806318       0.10380130       0.90315700
   154  I          0.97806318       0.89619870       0.40315700
   155  I          0.47806318       0.60380130       0.90315700
   156  I          0.47806318       0.39619870       0.40315700
   157  O          0.00258190       0.67931500       0.22074000
   158  O          0.00258190       0.32068500       0.72074000
   159  O          0.50258190       0.17931500       0.22074000
   160  O          0.50258190       0.82068500       0.72074000
   161  O          0.01562180       0.03421600       0.10654000
   162  O          0.01562180       0.96578400       0.60654000
   163  O          0.51562180       0.53421600       0.10654000
   164  O          0.51562180       0.46578400       0.60654000
   165  H          0.02610000       0.00980000       0.15860000
   166  H          0.02610000      -0.00980000       0.65860000
   167  H          0.52610000       0.50980000       0.15860000
   168  H          0.52610000       0.49020000       0.65860000
   169  O          0.91146190       0.69881600       0.89716000
   170  O          0.91146190       0.30118400       0.39716000
   171  O          0.41146190       0.19881600       0.89716000
   172  O          0.41146190       0.80118400       0.39716000
   173  C          0.97982000       0.68311900       0.14935000
   174  C          0.97982000       0.31688100       0.64935000
   175  C          0.47982000       0.18311900       0.14935000
   176  C          0.47982000       0.81688100       0.64935000
   177  C          0.98652000       0.86591700       0.08165000
   178  C          0.98652000       0.13408300       0.58165000
   179  C          0.48652000       0.36591700       0.08165000
   180  C          0.48652000       0.63408300       0.58165000
   181  C          0.96442000       0.86491600      -0.00255000
   182  C          0.96442000       0.13508400       0.49745000
   183  C          0.46442000       0.36491600      -0.00255000
   184  C          0.46442000       0.63508400       0.49745000
   185  C          0.93162000       0.69931800       0.97115000
   186  C          0.93162000       0.30068200       0.47115000
   187  C          0.43162000       0.19931800       0.97115000
   188  C          0.43162000       0.80068200       0.47115000
   189  C          0.89183000       0.36081900       0.02187000
   190  C          0.89183000       0.63918100       0.52187000
   191  C          0.39183000       0.86081900       0.02187000
   192  C          0.39183000       0.13918100       0.52187000
   193  H          0.87550000       0.37040000       0.96590000
   194  H          0.87550000       0.62960000       0.46590000
   195  H          0.37550000       0.87040000       0.96590000
   196  H          0.37550000       0.12960000       0.46590000
   197  C          0.88433000       0.19420000       0.08127000
   198  C          0.88433000       0.80580000       0.58127000
   199  C          0.38433000       0.69420000       0.08127000
   200  C          0.38433000       0.30580000       0.58127000
   201  H          0.86340000       0.08580000       0.06570000
   202  H          0.86340000       0.91420000       0.56570000
   203  H          0.36340000       0.58580000       0.06570000
   204  H          0.36340000       0.41420000       0.56570000
   205  C          0.90813000       0.18220000       0.16737000
   206  C          0.90813000       0.81780000       0.66737000
   207  C          0.40813000       0.68220000       0.16737000
   208  C          0.40813000       0.31780000       0.66737000
   209  H          0.90280000       0.06840000       0.20890000
   210  H          0.90280000       0.93160000       0.70890000
   211  H          0.40280000       0.56840000       0.20890000
   212  H          0.40280000       0.43160000       0.70890000
   213  C          0.93883000       0.34061900       0.18866000
   214  C          0.93883000       0.65938100       0.68866000
   215  C          0.43883000       0.84061900       0.18866000
   216  C          0.43883000       0.15938100       0.68866000
   217  H          0.95450000       0.33520000       0.24540000
   218  H          0.95450000       0.66480000       0.74540000
   219  H          0.45450000       0.83520000       0.24540000
   220  H          0.45450000       0.16480000       0.74540000
   221  C          0.92332000       0.51951700       0.04155000
   222  C          0.92332000       0.48048300       0.54155000
   223  C          0.42332000       0.01951700       0.04155000
   224  C          0.42332000      -0.01951700       0.54155000
   225  C          0.94702000       0.51111600       0.12605000
   226  C          0.94702000       0.48888400       0.62605000
   227  C          0.44702000       0.01111600       0.12605000
   228  C          0.44702000      -0.01111600       0.62605000
