data_IHXNAQ01
_symmetry_space_group_name_H-M    'P1'
_symmetry_Int_Tables_number       1
loop_
_symmetry_equiv_pos_site_id
_symmetry_equiv_pos_as_xyz
1 x,y,z
_cell_length_a                   4.92877
_cell_length_b                   13.5012
_cell_length_c                   14.1262
_cell_angle_alpha                90.0
_cell_angle_beta                 90.0
_cell_angle_gamma                90.0
loop_
_atom_site_label
_atom_site_type_symbol
_atom_site_fract_x
_atom_site_fract_y
_atom_site_fract_z
     1  I         -0.01964500       0.35781416      -0.00858582
     2  I          0.51964500       0.64218584       0.49141418
     3  I          0.01964500       0.85781416       0.50858582
     4  I          0.48035500       0.14218584       0.00858582
     5  C          0.55668000       0.63382000       0.91222000
     6  C          0.94332000       0.36618000       0.41222000
     7  C          0.44332000       0.13382000       0.58778000
     8  C          0.05668000       0.86618000       0.08778000
     9  C          0.01381000       0.64094000       0.72603000
    10  C          0.48619000       0.35906000       0.22603000
    11  C         -0.01381000       0.14094000       0.77397000
    12  C          0.51381000       0.85906000       0.27397000
    13  H          0.89390000       0.68610000       0.69920000
    14  H          0.60610000       0.31390000       0.19920000
    15  H          0.10610000       0.18610000       0.80080000
    16  H          0.39390000       0.81390000       0.30080000
    17  O          0.90456000       0.58945190       0.02372000
    18  O          0.59544000       0.41054810       0.52372000
    19  O          0.09544000       0.08945190       0.47628000
    20  O          0.40456000       0.91054810       0.97628000
    21  O          0.56307000       0.34432000       0.82142000
    22  O          0.93693000       0.65568000       0.32142000
    23  O          0.43693000       0.84432000       0.67858000
    24  O          0.06307000       0.15568000       0.17858000
    25  O          0.57326000       0.71827180       0.94152000
    26  O          0.92674000       0.28172820       0.44152000
    27  O          0.42674000       0.21827180       0.55848000
    28  O          0.07326000       0.78172820       0.05848000
    29  C          0.37059000       0.50453000       0.80613000
    30  C          0.12941000       0.49547000       0.30613000
    31  C          0.62941000       0.00453000       0.69387000
    32  C          0.87059000      -0.00453000       0.19387000
    33  C          0.36908000       0.60243000       0.83683000
    34  C          0.13092000       0.39757000       0.33683000
    35  C          0.63092000       0.10243000       0.66317000
    36  C          0.86908000       0.89757000       0.16317000
    37  C          0.74007000       0.55803000       0.95523000
    38  C          0.75993000       0.44197000       0.45523000
    39  C          0.25993000       0.05803000       0.54477000
    40  C          0.24007000       0.94197000       0.04477000
    41  C          0.73257000       0.46292000       0.92773000
    42  C          0.76743000       0.53708000       0.42773000
    43  C          0.26743000       0.96292000       0.57227000
    44  C          0.23257000       0.03708000       0.07227000
    45  C          0.55858000       0.42973000       0.84963000
    46  C          0.94142000       0.57027000       0.34963000
    47  C          0.44142000       0.92973000       0.65037000
    48  C          0.05858000       0.07027000       0.15037000
    49  C          0.19291000       0.47584000       0.73473000
    50  C          0.30709000       0.52416000       0.23473000
    51  C          0.80709000       0.97584000       0.76527000
    52  C          0.69291000       0.02416000       0.26527000
    53  H          0.19310000       0.41080000       0.71300000
    54  H          0.30690000       0.58920000       0.21300000
    55  H          0.80690000       0.91080000       0.78700000
    56  H          0.69310000       0.08920000       0.28700000
    57  C          0.01661200       0.54404000       0.69623000
    58  C          0.48338800       0.45596000       0.19623000
    59  C         -0.01661200       0.04404000       0.80377000
    60  C          0.51661200       0.95596000       0.30377000
    61  H          0.89690000       0.52410000       0.64900000
    62  H          0.60310000       0.47590000       0.14900000
    63  H          0.10310000       0.02410000       0.85100000
    64  H          0.39690000       0.97590000       0.35100000
    65  C          0.19219000       0.67033000       0.79643000
    66  C          0.30781000       0.32967000       0.29643000
    67  C          0.80781000       0.17033000       0.70357000
    68  C          0.69219000       0.82967000       0.20357000
    69  H          0.19330000       0.73580000       0.81670000
    70  H          0.30670000       0.26420000       0.31670000
    71  H          0.80670000       0.23580000       0.68330000
    72  H          0.69330000       0.76420000       0.18330000
    73  H          0.90110000       0.64831500       0.03030000
    74  H          0.59890000       0.35168500       0.53030000
    75  H          0.09890000       0.14831500       0.46970000
    76  H          0.40110000       0.85168500       0.96970000
