data_ILIMEV01
_symmetry_space_group_name_H-M    'P1'
_symmetry_Int_Tables_number       1
loop_
_symmetry_equiv_pos_site_id
_symmetry_equiv_pos_as_xyz
1 x,y,z
_cell_length_a                   11.81008
_cell_length_b                   7.40755
_cell_length_c                   25.872919
_cell_angle_alpha                90.0
_cell_angle_beta                 90.0
_cell_angle_gamma                90.0
loop_
_atom_site_label
_atom_site_type_symbol
_atom_site_fract_x
_atom_site_fract_y
_atom_site_fract_z
     1  C          0.34639170       0.75063000       0.32764700
     2  C          0.15360830       0.24937000       0.82764700
     3  C          0.84639170       0.74937000       0.67235300
     4  C          0.65360830       0.25063000       0.17235300
     5  C          0.65360830       0.24937000       0.67235300
     6  C          0.84639170       0.75063000       0.17235300
     7  C          0.15360830       0.25063000       0.32764700
     8  C          0.34639170       0.74937000       0.82764700
     9  C          0.43372160       0.67713000       0.36222700
    10  C          0.06627840       0.32287000       0.86222700
    11  C          0.93372160       0.82287000       0.63777300
    12  C          0.56627840       0.17713000       0.13777300
    13  C          0.56627840       0.32287000       0.63777300
    14  C          0.93372160       0.67713000       0.13777300
    15  C          0.06627840       0.17713000       0.36222700
    16  C          0.43372160       0.82287000       0.86222700
    17  H          0.47560000       0.57790000       0.35120000
    18  H          0.02440000       0.42210000       0.85120000
    19  H          0.97560000       0.92210000       0.64880000
    20  H          0.52440000       0.07790000       0.14880000
    21  H          0.52440000       0.42210000       0.64880000
    22  H          0.97560000       0.57790000       0.14880000
    23  H          0.02440000       0.07790000       0.35120000
    24  H          0.47560000       0.92210000       0.85120000
    25  C          0.45508160       0.74593000       0.40808700
    26  C          0.04491840       0.25407000       0.90808700
    27  C          0.95508160       0.75407000       0.59191300
    28  C          0.54491840       0.24593000       0.09191300
    29  C          0.54491840       0.25407000       0.59191300
    30  C          0.95508160       0.74593000       0.09191300
    31  C          0.04491840       0.24593000       0.40808700
    32  C          0.45508160       0.75407000       0.90808700
    33  H          0.40990000       0.84230000       0.41820000
    34  H          0.09010000       0.15770000       0.91820000
    35  H          0.90990000       0.65770000       0.58180000
    36  H          0.59010000       0.34230000       0.08180000
    37  H          0.59010000       0.15770000       0.58180000
    38  H          0.90990000       0.84230000       0.08180000
    39  H          0.09010000       0.34230000       0.41820000
    40  H          0.40990000       0.65770000       0.91820000
    41  C          0.54166150       0.68822000       0.44497600
    42  C          0.95833850       0.31178000       0.94497600
    43  C          0.04166150       0.81178000       0.55502400
    44  C          0.45833850       0.18822000       0.05502400
    45  C          0.45833850       0.31178000       0.55502400
    46  C          0.04166150       0.68822000       0.05502400
    47  C          0.95833850       0.18822000       0.44497600
    48  C          0.54166150       0.81178000       0.94497600
    49  C          0.53634150       0.74823000       0.49578700
    50  C          0.96365850       0.25177000      -0.00421300
    51  C          0.03634150       0.75177000       0.50421300
    52  C          0.46365850       0.24823000       0.00421300
    53  C          0.46365850       0.25177000       0.50421300
    54  C          0.03634150       0.74823000       0.00421300
    55  C          0.96365850       0.24823000       0.49578700
    56  C          0.53634150       0.75177000      -0.00421300
    57  H          0.47920000       0.82770000       0.50550000
    58  H          0.02080000       0.17230000       0.00550000
    59  H          0.97920000       0.67230000       0.49450000
    60  H          0.52080000       0.32770000       0.99450000
    61  H          0.52080000       0.17230000       0.49450000
    62  H          0.97920000       0.82770000       0.99450000
    63  H          0.02080000       0.32770000       0.50550000
    64  H          0.47920000       0.67230000       0.00550000
    65  C          0.61436160       0.69182000       0.53210700
    66  C          0.88563840       0.30818000       0.03210700
    67  C          0.11436160       0.80818000       0.46789300
    68  C          0.38563840       0.19182000       0.96789300
    69  C          0.38563840       0.30818000       0.46789300
    70  C          0.11436160       0.69182000       0.96789300
    71  C          0.88563840       0.19182000       0.53210700
    72  C          0.61436160       0.80818000       0.03210700
    73  C          0.69878160       0.57303000       0.51782700
    74  C          0.80121840       0.42697000       0.01782700
    75  C          0.19878160       0.92697000       0.48217300
    76  C          0.30121840       0.07303000       0.98217300
    77  C          0.30121840       0.42697000       0.48217300
    78  C          0.19878160       0.57303000       0.98217300
    79  C          0.80121840       0.07303000       0.51782700
    80  C          0.69878160       0.92697000       0.01782700
    81  H          0.75060000       0.53220000       0.54230000
    82  H          0.74940000       0.46780000       0.04230000
    83  H          0.25060000       0.96780000       0.45770000
    84  H          0.24940000       0.03220000       0.95770000
    85  H          0.24940000       0.46780000       0.45770000
    86  H          0.25060000       0.53220000       0.95770000
    87  H          0.74940000       0.03220000       0.54230000
    88  H          0.75060000       0.96780000       0.04230000
    89  C          0.70635170       0.51473000       0.46714700
    90  C          0.79364830       0.48527000       0.96714700
    91  C          0.20635170      -0.01473000       0.53285300
    92  C          0.29364830       0.01473000       0.03285300
    93  C          0.29364830       0.48527000       0.53285300
    94  C          0.20635170       0.51473000       0.03285300
    95  C          0.79364830       0.01473000       0.46714700
    96  C          0.70635170      -0.01473000       0.96714700
    97  H          0.76410000       0.43630000       0.45750000
    98  H          0.73590000       0.56370000       0.95750000
    99  H          0.26410000       0.06370000       0.54250000
   100  H          0.23590000       0.93630000       0.04250000
   101  H          0.23590000       0.56370000       0.54250000
   102  H          0.26410000       0.43630000       0.04250000
   103  H          0.73590000       0.93630000       0.45750000
   104  H          0.76410000       0.06370000       0.95750000
   105  C          0.62923160       0.57173000       0.43091700
   106  C          0.87076840       0.42827000       0.93091700
   107  C          0.12923160       0.92827000       0.56908300
   108  C          0.37076840       0.07173000       0.06908300
   109  C          0.37076840       0.42827000       0.56908300
   110  C          0.12923160       0.57173000       0.06908300
   111  C          0.87076840       0.07173000       0.43091700
   112  C          0.62923160       0.92827000       0.93091700
   113  H          0.63540000       0.53250000       0.39690000
   114  H          0.86460000       0.46750000       0.89690000
   115  H          0.13540000       0.96750000       0.60310000
   116  H          0.36460000       0.03250000       0.10310000
   117  H          0.36460000       0.46750000       0.60310000
   118  H          0.13540000       0.53250000       0.10310000
   119  H          0.86460000       0.03250000       0.39690000
   120  H          0.63540000       0.96750000       0.89690000
   121  C          0.35897150       0.72712000       0.27075700
   122  C          0.14102850       0.27288000       0.77075700
   123  C          0.85897150       0.77288000       0.72924300
   124  C          0.64102850       0.22712000       0.22924300
   125  C          0.64102850       0.27288000       0.72924300
   126  C          0.85897150       0.72712000       0.22924300
   127  C          0.14102850       0.22712000       0.27075700
   128  C          0.35897150       0.77288000       0.77075700
   129  C          0.45710180       0.65943000       0.24833700
   130  C          0.04289820       0.34057000       0.74833700
   131  C          0.95710180       0.84057000       0.75166300
   132  C          0.54289820       0.15943000       0.25166300
   133  C          0.54289820       0.34057000       0.75166300
   134  C          0.95710180       0.65943000       0.25166300
   135  C          0.04289820       0.15943000       0.24833700
   136  C          0.45710180       0.84057000       0.74833700
   137  H          0.51680000       0.62260000       0.26930000
   138  H          0.98320000       0.37740000       0.76930000
   139  H          0.01680000       0.87740000       0.73070000
   140  H          0.48320000       0.12260000       0.23070000
   141  H          0.48320000       0.37740000       0.73070000
   142  H          0.01680000       0.62260000       0.23070000
   143  H          0.98320000       0.12260000       0.26930000
   144  H          0.51680000       0.87740000       0.76930000
   145  C          0.46672000       0.64613000       0.19526800
   146  C          0.03328000       0.35387000       0.69526800
   147  C          0.96672000       0.85387000       0.80473200
   148  C          0.53328000       0.14613000       0.30473200
   149  C          0.53328000       0.35387000       0.80473200
   150  C          0.96672000       0.64613000       0.30473200
   151  C          0.03328000       0.14613000       0.19526800
   152  C          0.46672000       0.85387000       0.69526800
   153  H          0.53320000       0.60260000       0.18060000
   154  H          0.96680000       0.39740000       0.68060000
   155  H          0.03320000       0.89740000       0.81940000
   156  H          0.46680000       0.10260000       0.31940000
   157  H          0.46680000       0.39740000       0.81940000
   158  H          0.03320000       0.60260000       0.31940000
   159  H          0.96680000       0.10260000       0.18060000
   160  H          0.53320000       0.89740000       0.68060000
   161  C          0.37832000       0.69713000       0.16415800
   162  C          0.12168000       0.30287000       0.66415800
   163  C          0.87832000       0.80287000       0.83584200
   164  C          0.62168000       0.19713000       0.33584200
   165  C          0.62168000       0.30287000       0.83584200
   166  C          0.87832000       0.69713000       0.33584200
   167  C          0.12168000       0.19713000       0.16415800
   168  C          0.37832000       0.80287000       0.66415800
   169  H          0.38430000       0.68610000       0.12850000
   170  H          0.11570000       0.31390000       0.62850000
   171  H          0.88430000       0.81390000       0.87150000
   172  H          0.61570000       0.18610000       0.37150000
   173  H          0.61570000       0.31390000       0.87150000
   174  H          0.88430000       0.68610000       0.37150000
   175  H          0.11570000       0.18610000       0.12850000
   176  H          0.38430000       0.81390000       0.62850000
   177  C          0.28072000       0.76443000       0.18571800
   178  C          0.21928000       0.23557000       0.68571800
   179  C          0.78072000       0.73557000       0.81428200
   180  C          0.71928000       0.26443000       0.31428200
   181  C          0.71928000       0.23557000       0.81428200
   182  C          0.78072000       0.76443000       0.31428200
   183  C          0.21928000       0.26443000       0.18571800
   184  C          0.28072000       0.73557000       0.68571800
   185  H          0.22110000       0.79950000       0.16450000
   186  H          0.27890000       0.20050000       0.66450000
   187  H          0.72110000       0.70050000       0.83550000
   188  H          0.77890000       0.29950000       0.33550000
   189  H          0.77890000       0.20050000       0.83550000
   190  H          0.72110000       0.79950000       0.33550000
   191  H          0.27890000       0.29950000       0.16450000
   192  H          0.22110000       0.70050000       0.66450000
   193  C          0.27087170       0.78023000       0.23867700
   194  C          0.22912830       0.21977000       0.73867700
   195  C          0.77087170       0.71977000       0.76132300
   196  C          0.72912830       0.28023000       0.26132300
   197  C          0.72912830       0.21977000       0.76132300
   198  C          0.77087170       0.78023000       0.26132300
   199  C          0.22912830       0.28023000       0.23867700
   200  C          0.27087170       0.71977000       0.73867700
   201  H          0.20480000       0.82680000       0.25300000
   202  H          0.29520000       0.17320000       0.75300000
   203  H          0.70480000       0.67320000       0.74700000
   204  H          0.79520000       0.32680000       0.24700000
   205  H          0.79520000       0.17320000       0.74700000
   206  H          0.70480000       0.82680000       0.24700000
   207  H          0.29520000       0.32680000       0.25300000
   208  H          0.20480000       0.67320000       0.75300000
   209  O          0.26509120       0.83462000       0.34476500
   210  O          0.23490880       0.16538000       0.84476500
   211  O          0.76509120       0.66538000       0.65523500
   212  O          0.73490880       0.33462000       0.15523500
   213  O          0.73490880       0.16538000       0.65523500
   214  O          0.76509120       0.83462000       0.15523500
   215  O          0.23490880       0.33462000       0.34476500
   216  O          0.26509120       0.66538000       0.84476500
   217  O          0.60425130       0.75702000       0.58108500
   218  O          0.89574870       0.24298000       0.08108500
   219  O          0.10425130       0.74298000       0.41891500
   220  O          0.39574870       0.25702000       0.91891500
   221  O          0.39574870       0.24298000       0.41891500
   222  O          0.10425130       0.75702000       0.91891500
   223  O          0.89574870       0.25702000       0.58108500
   224  O          0.60425130       0.74298000       0.08108500
   225  H          0.66220000       0.71930000       0.60259000
   226  H          0.83780000       0.28070000       0.10259000
   227  H          0.16220000       0.78070000       0.39741000
   228  H          0.33780000       0.21930000       0.89741000
   229  H          0.33780000       0.28070000       0.39741000
   230  H          0.16220000       0.71930000       0.89741000
   231  H          0.83780000       0.21930000       0.60259000
   232  H          0.66220000       0.78070000       0.10259000
