data_ILIMEV
_symmetry_space_group_name_H-M    'P1'
_symmetry_Int_Tables_number       1
loop_
_symmetry_equiv_pos_site_id
_symmetry_equiv_pos_as_xyz
1 x,y,z
_cell_length_a                   13.2956
_cell_length_b                   5.6592
_cell_length_c                   16.1448
_cell_angle_alpha                90.0
_cell_angle_beta                 109.735
_cell_angle_gamma                90.0
loop_
_atom_site_label
_atom_site_type_symbol
_atom_site_fract_x
_atom_site_fract_y
_atom_site_fract_z
     1  C          0.48652000       0.20005000       0.65159170
     2  C          0.01348000       0.20005000       0.84840830
     3  C          0.51348000       0.79995000       0.34840830
     4  C         -0.01348000       0.79995000       0.15159170
     5  C          0.59602000       0.18016000       0.67262000
     6  C          0.90398000       0.18016000       0.82738000
     7  C          0.40398000       0.81984000       0.32738000
     8  C          0.09602000       0.81984000       0.17262000
     9  C          0.63982000      -0.01566000       0.64766190
    10  C          0.86018000      -0.01566000       0.85233810
    11  C          0.36018000       0.01566000       0.35233810
    12  C          0.13982000       0.01566000       0.14766190
    13  C          0.57422000       0.80874000       0.60069190
    14  C          0.92578000       0.80874000       0.89930810
    15  C          0.42578000       0.19126000       0.39930810
    16  C          0.07422000       0.19126000       0.10069190
    17  C          0.46592000       0.82675000       0.57802170
    18  C          0.03408000       0.82675000       0.92197830
    19  C          0.53408000       0.17325000       0.42197830
    20  C          0.96592000       0.17325000       0.07802170
    21  C          0.41966170       0.02254000       0.60193150
    22  C          0.08033830       0.02254000       0.89806850
    23  C          0.58033830      -0.02254000       0.39806850
    24  C          0.91966170      -0.02254000       0.10193150
    25  C          0.30231190       0.04025000       0.57337170
    26  C          0.19768810       0.04025000       0.92662830
    27  C          0.69768810       0.95975000       0.42662830
    28  C          0.80231190       0.95975000       0.07337170
    29  C          0.24992000       0.22755000       0.60777180
    30  C          0.25008000       0.22755000       0.89222820
    31  C          0.75008000       0.77245000       0.39222820
    32  C          0.74992000       0.77245000       0.10777180
    33  C          0.14452000       0.23585000       0.58548170
    34  C          0.35548000       0.23585000       0.91451830
    35  C          0.85548000       0.76415000       0.41451830
    36  C          0.64452000       0.76415000       0.08548170
    37  C          0.08034180       0.40344000       0.61463150
    38  C          0.41965820       0.40344000       0.88536850
    39  C          0.91965820       0.59656000       0.38536850
    40  C          0.58034180       0.59656000       0.11463150
    41  C          0.97248000       0.35625000       0.59500170
    42  C          0.52752000       0.35625000       0.90499830
    43  C          0.02752000       0.64375000       0.40499830
    44  C          0.47248000       0.64375000       0.09500170
    45  C          0.90793810       0.50924000       0.62101160
    46  C          0.59206190       0.50924000       0.87898840
    47  C          0.09206190       0.49076000       0.37898840
    48  C          0.40793810       0.49076000       0.12101160
    49  C          0.95078000       0.71165000       0.66802180
    50  C          0.54922000       0.71165000       0.83197820
    51  C          0.04922000       0.28835000       0.33197820
    52  C          0.45078000       0.28835000       0.16802180
    53  C          0.05752000       0.75925000       0.68588190
    54  C          0.44248000       0.75925000       0.81411810
    55  C          0.94248000       0.24075000       0.31411810
    56  C          0.55752000       0.24075000       0.18588190
    57  C          0.12232000       0.60885000       0.66003170
    58  C          0.37768000       0.60885000       0.83996830
    59  C          0.87768000       0.39115000       0.33996830
    60  C          0.62232000       0.39115000       0.16003170
    61  O          0.24782150       0.89736000       0.52004150
    62  O          0.25217850       0.89736000       0.97995850
    63  O          0.75217850       0.10264000       0.47995850
    64  O          0.74782150       0.10264000       0.02004150
    65  O          0.80133860       0.46734000       0.60200150
    66  O          0.69866140       0.46734000       0.89799850
    67  O          0.19866140       0.53266000       0.39799850
    68  O          0.30133860       0.53266000       0.10200150
    69  H          0.45591900       0.34640000       0.67091500
    70  H          0.04408100       0.34640000       0.82908500
    71  H          0.54408100       0.65360000       0.32908500
    72  H          0.95591900       0.65360000       0.17091500
    73  H          0.63720000       0.30750000       0.70581800
    74  H          0.86280000       0.30750000       0.79418200
    75  H          0.36280000       0.69250000       0.29418200
    76  H          0.13720000       0.69250000       0.20581800
    77  H          0.72020000       0.95760000       0.66401700
    78  H          0.77980000       0.95760000       0.83598300
    79  H          0.27980000       0.04240000       0.33598300
    80  H          0.22020000       0.04240000       0.16401700
    81  H          0.60720000       0.67750000       0.58291700
    82  H          0.89280000       0.67750000       0.91708300
    83  H          0.39280000       0.32250000       0.41708300
    84  H          0.10720000       0.32250000       0.08291700
    85  H          0.41431900       0.71060000       0.54521500
    86  H          0.08568100       0.71060000       0.95478500
    87  H          0.58568100       0.28940000       0.45478500
    88  H          0.91431900       0.28940000       0.04521500
    89  H          0.29820000       0.35550000       0.64821800
    90  H          0.20180000       0.35550000       0.85178200
    91  H          0.70180000       0.64450000       0.35178200
    92  H          0.79820000       0.64450000       0.14821800
    93  H          0.10220000       0.09650000       0.54251700
    94  H          0.39780000       0.09650000       0.95748300
    95  H          0.89780000       0.90350000       0.45748300
    96  H          0.60220000       0.90350000       0.04251700
    97  H          0.93978200       0.21140000       0.56191500
    98  H          0.56021800       0.21140000       0.93808500
    99  H          0.06021800       0.78860000       0.43808500
   100  H          0.43978200       0.78860000       0.06191500
   101  H          0.90280000       0.82850000       0.68901700
   102  H          0.59720000       0.82850000       0.81098300
   103  H          0.09720000       0.17150000       0.31098300
   104  H          0.40280000       0.17150000       0.18901700
   105  H          0.08781900       0.88640000       0.71771500
   106  H          0.41218100       0.88640000       0.78228500
   107  H          0.91218100       0.11360000       0.28228500
   108  H          0.58781900       0.11360000       0.21771500
   109  H          0.19591800       0.65040000       0.67031400
   110  H          0.30408200       0.65040000       0.82968600
   111  H          0.80408200       0.34960000       0.32968600
   112  H          0.69591800       0.34960000       0.17031400
   113  H          0.77370000       0.33760000       0.55520000
   114  H          0.72630000       0.33760000       0.94480000
   115  H          0.22630000       0.66240000       0.44480000
   116  H          0.27370000       0.66240000       0.05520000
