data_ILIMEV02
_symmetry_space_group_name_H-M    'P1'
_symmetry_Int_Tables_number       1
loop_
_symmetry_equiv_pos_site_id
_symmetry_equiv_pos_as_xyz
1 x,y,z
_cell_length_a                   11.6312
_cell_length_b                   13.1633
_cell_length_c                   7.397714
_cell_angle_alpha                90.0
_cell_angle_beta                 90.0
_cell_angle_gamma                90.0
loop_
_atom_site_label
_atom_site_type_symbol
_atom_site_fract_x
_atom_site_fract_y
_atom_site_fract_z
     1  O          0.73769130       0.19353900       0.42233000
     2  O          0.26230870       0.80646100       0.92233000
     3  O          0.23769130       0.80646100       0.42233000
     4  O          0.76230870       0.19353900       0.92233000
     5  O          0.40608130       0.66152100       0.37993000
     6  O          0.59391870       0.33847900       0.87993000
     7  O          0.90608130       0.33847900       0.37993000
     8  O          0.09391870       0.66152100       0.87993000
     9  H          0.34520000       0.69951800       0.37240000
    10  H          0.65480000       0.30048200       0.87240000
    11  H          0.84520000       0.30048200       0.37240000
    12  H          0.15480000       0.69951800       0.87240000
    13  C          0.64963160       0.15768140       0.35833000
    14  C          0.35036840       0.84231860       0.85833000
    15  C          0.14963160       0.84231860       0.35833000
    16  C          0.85036840       0.15768140       0.85833000
    17  C          0.55536180       0.22414130       0.29873000
    18  C          0.44463820       0.77585870       0.79873000
    19  C          0.05536180       0.77585870       0.29873000
    20  C          0.94463820       0.22414130       0.79873000
    21  H          0.50270000       0.19960000       0.21480000
    22  H          0.49730000       0.80040000       0.71480000
    23  H          0.00270000       0.80040000       0.21480000
    24  H         -0.00270000       0.19960000       0.71480000
    25  C          0.54314160       0.31774120       0.36063000
    26  C          0.45685840       0.68225880       0.86063000
    27  C          0.04314160       0.68225880       0.36063000
    28  C          0.95685840       0.31774120       0.86063000
    29  H          0.59820000       0.33940000       0.44330000
    30  H          0.40180000       0.66060000       0.94330000
    31  H          0.09820000       0.66060000       0.44330000
    32  H          0.90180000       0.33940000       0.94330000
    33  C          0.45350160       0.39123130       0.31483000
    34  C          0.54649840       0.60876870       0.81483000
    35  C          0.95350160       0.60876870       0.31483000
    36  C          0.04649840       0.39123130       0.81483000
    37  C          0.46781150       0.49211140       0.36703000
    38  C          0.53218850       0.50788860       0.86703000
    39  C          0.96781150       0.50788860       0.36703000
    40  C          0.03218850       0.49211140       0.86703000
    41  H          0.53310000       0.51110000       0.43110000
    42  H          0.46690000       0.48890000       0.93110000
    43  H          0.03310000       0.48890000       0.43110000
    44  H          0.96690000       0.51110000       0.93110000
    45  C          0.38552160       0.56444140       0.32433000
    46  C          0.61447840       0.43555860       0.82433000
    47  C          0.88552160       0.43555860       0.32433000
    48  C          0.11447840       0.56444140       0.82433000
    49  C          0.28802160       0.53652150       0.23023000
    50  C          0.71197840       0.46347850       0.73023000
    51  C          0.78802160       0.46347850       0.23023000
    52  C          0.21197840       0.53652150       0.73023000
    53  H          0.23310000       0.58500000       0.19990000
    54  H          0.76690000       0.41500000       0.69990000
    55  H          0.73310000       0.41500000       0.19990000
    56  H          0.26690000       0.58500000       0.69990000
    57  C          0.27241180       0.43596140       0.18103000
    58  C          0.72758820       0.56403860       0.68103000
    59  C          0.77241180       0.56403860       0.18103000
    60  C          0.22758820       0.43596140       0.68103000
    61  H          0.20600000       0.41690000       0.11970000
    62  H          0.79400000       0.58310000       0.61970000
    63  H          0.70600000       0.58310000       0.11970000
    64  H          0.29400000       0.41690000       0.61970000
    65  C          0.35387170       0.36403140       0.22163000
    66  C          0.64612830       0.63596860       0.72163000
    67  C          0.85387170       0.63596860       0.22163000
    68  C          0.14612830       0.36403140       0.72163000
    69  H          0.34260000       0.29690000       0.18690000
    70  H          0.65740000       0.70310000       0.68690000
    71  H          0.84260000       0.70310000       0.18690000
    72  H          0.15740000       0.29690000       0.68690000
    73  C          0.63583150       0.04508120       0.34683000
    74  C          0.36416850       0.95491880       0.84683000
    75  C          0.13583150       0.95491880       0.34683000
    76  C          0.86416850       0.04508120       0.84683000
    77  C          0.53742170      -0.00127140       0.27943000
    78  C          0.46257830       0.00127140       0.77943000
    79  C          0.03742170       0.00127140       0.27943000
    80  C          0.96257830      -0.00127140       0.77943000
    81  H          0.47750000       0.03840000       0.23540000
    82  H          0.52250000       0.96160000       0.73540000
    83  H          0.97750000       0.96160000       0.23540000
    84  H          0.02250000       0.03840000       0.73540000
    85  C          0.52812000       0.89395850       0.27734000
    86  C          0.47188000       0.10604150       0.77734000
    87  C          0.02812000       0.10604150       0.27734000
    88  C          0.97188000       0.89395850       0.77734000
    89  H          0.46170000       0.86360000       0.23240000
    90  H          0.53830000       0.13640000       0.73240000
    91  H          0.96170000       0.13640000       0.23240000
    92  H          0.03830000       0.86360000       0.73240000
    93  C          0.61592000       0.83476850       0.34084000
    94  C          0.38408000       0.16523150       0.84084000
    95  C          0.11592000       0.16523150       0.34084000
    96  C          0.88408000       0.83476850       0.84084000
    97  H          0.60900000       0.76440000       0.33930000
    98  H          0.39100000       0.23560000       0.83930000
    99  H          0.10900000       0.23560000       0.33930000
   100  H          0.89100000       0.76440000       0.83930000
   101  C          0.71418180       0.87927850       0.40703000
   102  C          0.28581820       0.12072150       0.90703000
   103  C          0.21418180       0.12072150       0.40703000
   104  C          0.78581820       0.87927850       0.90703000
   105  H          0.77400000       0.83890000       0.44950000
   106  H          0.22600000       0.16110000       0.94950000
   107  H          0.27400000       0.16110000       0.44950000
   108  H          0.72600000       0.83890000       0.94950000
   109  C          0.72426160       0.98390860       0.41033000
   110  C          0.27573840       0.01609140       0.91033000
   111  C          0.22426160       0.01609140       0.41033000
   112  C          0.77573840       0.98390860       0.91033000
   113  H          0.79090000       0.01360000       0.45550000
   114  H          0.20910000       0.98640000       0.95550000
   115  H          0.29090000       0.98640000       0.45550000
   116  H          0.70910000       0.01360000       0.95550000
