data_IMDIAC
_symmetry_space_group_name_H-M    'P1'
_symmetry_Int_Tables_number       1
loop_
_symmetry_equiv_pos_site_id
_symmetry_equiv_pos_as_xyz
1 x,y,z
_cell_length_a                   6.34067
_cell_length_b                   9.13646
_cell_length_c                   9.378313
_cell_angle_alpha                90.0
_cell_angle_beta                 92.721
_cell_angle_gamma                90.0
loop_
_atom_site_label
_atom_site_type_symbol
_atom_site_fract_x
_atom_site_fract_y
_atom_site_fract_z
     1  C          0.91410000       0.06500000       0.31070000
     2  C          0.08590000       0.56500000       0.18930000
     3  C          0.08590000       0.93500000       0.68930000
     4  C          0.91410000       0.43500000       0.81070000
     5  C         -0.00310000       0.11460000       0.16940000
     6  C          0.00310000       0.61460000       0.33060000
     7  C          0.00310000       0.88540000       0.83060000
     8  C         -0.00310000       0.38540000       0.66940000
     9  C          0.59950000       0.23310000       0.30840000
    10  C          0.40050000       0.73310000       0.19160000
    11  C          0.40050000       0.76690000       0.69160000
    12  C          0.59950000       0.26690000       0.80840000
    13  C          0.42690000       0.24960000       0.41370000
    14  C          0.57310000       0.74960000       0.08630000
    15  C          0.57310000       0.75040000       0.58630000
    16  C          0.42690000       0.25040000       0.91370000
    17  H          0.23020000       0.09790000       0.06730000
    18  H          0.76980000       0.59790000       0.43270000
    19  H          0.76980000       0.90210000       0.93270000
    20  H          0.23020000       0.40210000       0.56730000
    21  H          0.62910000       0.03060000       0.22840000
    22  H          0.37090000       0.53060000       0.27160000
    23  H          0.37090000       0.96940000       0.77160000
    24  H          0.62910000       0.46940000       0.72840000
    25  H          0.63840000       0.03470000       0.39210000
    26  H          0.36160000       0.53470000       0.10790000
    27  H          0.36160000       0.96530000       0.60790000
    28  H          0.63840000       0.46530000       0.89210000
    29  H         -0.01970000       0.12660000       0.38800000
    30  H          0.01970000       0.62660000       0.11200000
    31  H          0.01970000       0.87340000       0.61200000
    32  H         -0.01970000       0.37340000       0.88800000
    33  H          0.94950000       0.96450000       0.32770000
    34  H          0.05050000       0.46450000       0.17230000
    35  H          0.05050000       0.03550000       0.67230000
    36  H          0.94950000       0.53550000       0.82770000
    37  H          0.71450000       0.30130000       0.34310000
    38  H          0.28550000       0.80130000       0.15690000
    39  H          0.28550000       0.69870000       0.65690000
    40  H          0.71450000       0.19870000       0.84310000
    41  H          0.54580000       0.25850000       0.21110000
    42  H          0.45420000       0.75850000       0.28890000
    43  H          0.45420000       0.74150000       0.78890000
    44  H          0.54580000       0.24150000       0.71110000
    45  N          0.68050000       0.07990000       0.30870000
    46  N          0.31950000       0.57990000       0.19130000
    47  N          0.31950000       0.92010000       0.69130000
    48  N          0.68050000       0.42010000       0.80870000
    49  O          0.18940000       0.06850000       0.15350000
    50  O          0.81060000       0.56850000       0.34650000
    51  O          0.81060000       0.93150000       0.84650000
    52  O          0.18940000       0.43150000       0.65350000
    53  O          0.89460000       0.18870000       0.08580000
    54  O          0.10540000       0.68870000       0.41420000
    55  O          0.10540000       0.81130000       0.91420000
    56  O          0.89460000       0.31130000       0.58580000
    57  O          0.34360000       0.37560000       0.41490000
    58  O          0.65640000       0.87560000       0.08510000
    59  O          0.65640000       0.62440000       0.58510000
    60  O          0.34360000       0.12440000       0.91490000
    61  O          0.38290000       0.14630000       0.49090000
    62  O          0.61710000       0.64630000       0.00910000
    63  O          0.61710000       0.85370000       0.50910000
    64  O          0.38290000       0.35370000      -0.00910000
