data_IMDIAC01
_symmetry_space_group_name_H-M    'P1'
_symmetry_Int_Tables_number       1
loop_
_symmetry_equiv_pos_site_id
_symmetry_equiv_pos_as_xyz
1 x,y,z
_cell_length_a                   5.2581
_cell_length_b                   12.2062
_cell_length_c                   8.7091
_cell_angle_alpha                90.0
_cell_angle_beta                 100.14
_cell_angle_gamma                90.0
loop_
_atom_site_label
_atom_site_type_symbol
_atom_site_fract_x
_atom_site_fract_y
_atom_site_fract_z
     1  N          0.23570000       0.24700000       0.04560000
     2  N          0.26430000       0.74700000       0.45440000
     3  N          0.76430000       0.75300000       0.95440000
     4  N          0.73570000       0.25300000       0.54560000
     5  C          0.29890000       0.13450000       0.00050000
     6  C          0.20110000       0.63450000       0.49950000
     7  C          0.70110000       0.86550000      -0.00050000
     8  C          0.79890000       0.36550000       0.50050000
     9  C          0.08670000       0.09000000       0.87620000
    10  C          0.41330000       0.59000000       0.62380000
    11  C          0.91330000       0.91000000       0.12380000
    12  C          0.58670000       0.41000000       0.37620000
    13  C          0.30860000       0.33320000       0.94080000
    14  C          0.19140000       0.83320000       0.55920000
    15  C          0.69140000       0.66680000       0.05920000
    16  C          0.80860000       0.16680000       0.44080000
    17  C          0.60010000       0.34750000       0.96760000
    18  C          0.89990000       0.84750000       0.53240000
    19  C          0.39990000       0.65250000       0.03240000
    20  C          0.10010000       0.15250000       0.46760000
    21  O          0.13970000      -0.00730000       0.83200000
    22  O          0.36030000       0.49270000       0.66800000
    23  O          0.86030000       0.00730000       0.16800000
    24  O          0.63970000       0.50730000       0.33200000
    25  O          0.89090000       0.14180000       0.82940000
    26  O          0.60910000       0.64180000       0.67060000
    27  O          0.10910000       0.85820000       0.17060000
    28  O          0.39090000       0.35820000       0.32940000
    29  O          0.68760000       0.40940000       0.87160000
    30  O          0.81240000       0.90940000       0.62840000
    31  O          0.31240000       0.59060000       0.12840000
    32  O          0.18760000       0.09060000       0.37160000
    33  O          0.73400000       0.30000000       0.07910000
    34  O          0.76600000       0.80000000       0.42090000
    35  O          0.26600000       0.70000000       0.92090000
    36  O          0.23400000       0.20000000       0.57910000
    37  H         -0.00800000       0.96700000       0.74000000
    38  H          0.50800000       0.46700000       0.76000000
    39  H          0.00800000       0.03300000       0.26000000
    40  H          0.49200000       0.53300000       0.24000000
    41  H          0.05400000       0.26000000       0.05000000
    42  H          0.44600000       0.76000000       0.45000000
    43  H          0.94600000       0.74000000       0.95000000
    44  H          0.55400000       0.24000000       0.55000000
    45  H          0.31000000       0.26600000       0.15000000
    46  H          0.19000000       0.76600000       0.35000000
    47  H          0.69000000       0.73400000       0.85000000
    48  H          0.81000000       0.23400000       0.65000000
    49  H          0.32200000       0.08400000       0.09900000
    50  H          0.17800000       0.58400000       0.40100000
    51  H          0.67800000       0.91600000       0.90100000
    52  H          0.82200000       0.41600000       0.59900000
    53  H          0.46300000       0.13700000       0.96000000
    54  H          0.03700000       0.63700000       0.54000000
    55  H          0.53700000       0.86300000       0.04000000
    56  H          0.96300000       0.36300000       0.46000000
    57  H          0.22200000       0.40100000       0.96500000
    58  H          0.27800000       0.90100000       0.53500000
    59  H          0.77800000       0.59900000       0.03500000
    60  H          0.72200000       0.09900000       0.46500000
    61  H          0.25000000       0.30700000       0.82800000
    62  H          0.25000000       0.80700000       0.67200000
    63  H          0.75000000       0.69300000       0.17200000
    64  H          0.75000000       0.19300000       0.32800000
