data_IMDIAC04
_symmetry_space_group_name_H-M    'P1'
_symmetry_Int_Tables_number       1
loop_
_symmetry_equiv_pos_site_id
_symmetry_equiv_pos_as_xyz
1 x,y,z
_cell_length_a                   14.14466
_cell_length_b                   5.26532
_cell_length_c                   14.86695
_cell_angle_alpha                90.0
_cell_angle_beta                 90.0
_cell_angle_gamma                90.0
loop_
_atom_site_label
_atom_site_type_symbol
_atom_site_fract_x
_atom_site_fract_y
_atom_site_fract_z
     1  O          0.14986120       0.46993000       0.59640130
     2  O          0.85013880       0.53007000       0.09640130
     3  O          0.64986120       0.53007000       0.59640130
     4  O          0.35013880       0.46993000       0.09640130
     5  O          0.30294110       0.46003000       0.56057130
     6  O          0.69705890       0.53997000       0.06057130
     7  O          0.80294110       0.53997000       0.56057130
     8  O          0.19705890       0.46003000       0.06057130
     9  O          0.54418130      -0.00644000       0.72738150
    10  O          0.45581870       0.00644000       0.22738150
    11  O          0.04418130       0.00644000       0.72738150
    12  O          0.95581870      -0.00644000       0.22738150
    13  O          0.49310120       0.73527000       0.61846130
    14  O          0.50689880       0.26473000       0.11846130
    15  O         -0.00689880       0.26473000       0.61846130
    16  O          0.00689880       0.73527000       0.11846130
    17  H          0.55930000       0.66130000       0.61930000
    18  H          0.44070000       0.33870000       0.11930000
    19  H          0.05930000       0.33870000       0.61930000
    20  H          0.94070000       0.66130000       0.11930000
    21  N          0.32709130       0.96927000       0.59913140
    22  N          0.67290870       0.03073000       0.09913140
    23  N          0.82709130       0.03073000       0.59913140
    24  N          0.17290870       0.96927000       0.09913140
    25  H          0.32365150       0.79760000       0.59671150
    26  H          0.67634850       0.20240000       0.09671150
    27  H          0.82365150       0.20240000       0.59671150
    28  H          0.17634850       0.79760000       0.09671150
    29  H          0.35456000       0.02371200       0.54751200
    30  H          0.64544000      -0.02371200       0.04751200
    31  H          0.85456000      -0.02371200       0.54751200
    32  H          0.14544000       0.02371200       0.04751200
    33  C          0.22812140       0.35714000       0.58563140
    34  C          0.77187860       0.64286000       0.08563140
    35  C          0.72812140       0.64286000       0.58563140
    36  C          0.27187860       0.35714000       0.08563140
    37  C          0.22972150       0.07444000       0.60443180
    38  C          0.77027850       0.92556000       0.10443180
    39  C          0.72972150       0.92556000       0.60443180
    40  C          0.27027850       0.07444000       0.10443180
    41  H          0.20390800       0.04274700       0.66455900
    42  H          0.79609200       0.95725300       0.16455900
    43  H          0.70390800       0.95725300       0.66455900
    44  H          0.29609200       0.04274700       0.16455900
    45  H          0.18933700      -0.01290700       0.56070000
    46  H          0.81066300       0.01290700       0.06070000
    47  H          0.68933700       0.01290700       0.56070000
    48  H          0.31066300      -0.01290700       0.06070000
    49  C          0.38768180       0.04355000       0.67635180
    50  C          0.61231820       0.95645000       0.17635180
    51  C          0.88768180       0.95645000       0.67635180
    52  C          0.11231820       0.04355000       0.17635180
    53  H          0.35531200      -0.00220300       0.73233800
    54  H          0.64468800       0.00220300       0.23233800
    55  H          0.85531200       0.00220300       0.73233800
    56  H          0.14468800      -0.00220300       0.23233800
    57  H          0.39569400       0.22833100       0.67587800
    58  H          0.60430600       0.77166900       0.17587800
    59  H          0.89569400       0.77166900       0.67587800
    60  H          0.10430600       0.22833100       0.17587800
    61  C          0.48391160       0.92036000       0.67562170
    62  C          0.51608840       0.07964000       0.17562170
    63  C          0.98391160       0.07964000       0.67562170
    64  C          0.01608840       0.92036000       0.17562170
    65  O          0.59058120       0.04333000       0.41211140
    66  O          0.40941880       0.95667000       0.91211140
    67  O          0.09058120       0.95667000       0.41211140
    68  O          0.90941880       0.04333000       0.91211140
    69  O          0.43811110       0.07333000       0.44516120
    70  O          0.56188890       0.92667000       0.94516120
    71  O          0.93811110       0.92667000       0.44516120
    72  O          0.06188890       0.07333000       0.94516120
    73  O          0.25435130       0.78663000       0.39091140
    74  O          0.74564870       0.21337000       0.89091140
    75  O          0.75435130       0.21337000       0.39091140
    76  O          0.24564870       0.78663000       0.89091140
    77  H          0.18130000       0.84760000       0.39430000
    78  H          0.81870000       0.15240000       0.89430000
    79  H          0.68130000       0.15240000       0.39430000
    80  H          0.31870000       0.84760000       0.89430000
    81  O          0.20954150       0.55195000       0.27401150
    82  O          0.79045850       0.44805000       0.77401150
    83  O          0.70954150       0.44805000       0.27401150
    84  O          0.29045850       0.55195000       0.77401150
    85  N          0.42277130       0.56403000       0.40769130
    86  N          0.57722870       0.43597000       0.90769130
    87  N          0.92277130       0.43597000       0.40769130
    88  N          0.07722870       0.56403000       0.90769130
    89  H          0.39197000       0.50231400       0.45451100
    90  H          0.60803000       0.49768600       0.95451100
    91  H          0.89197000       0.49768600       0.45451100
    92  H          0.10803000       0.50231400       0.95451100
    93  H          0.42773170       0.73040000       0.41512000
    94  H          0.57226830       0.26960000       0.91512000
    95  H          0.92773170       0.26960000       0.41512000
    96  H          0.07226830       0.73040000       0.91512000
    97  C          0.51584140       0.16664000       0.42217160
    98  C          0.48415860       0.83336000       0.92217160
    99  C          0.01584140       0.83336000       0.42217160
   100  C          0.98415860       0.16664000       0.92217160
   101  C          0.51889160       0.45164000       0.40523180
   102  C          0.48110840       0.54836000       0.90523180
   103  C          0.01889160       0.54836000       0.40523180
   104  C          0.98110840       0.45164000       0.90523180
   105  H          0.55843300       0.53284600       0.45106100
   106  H          0.44156700       0.46715400       0.95106100
   107  H          0.05843300       0.46715400       0.45106100
   108  H          0.94156700       0.53284600       0.95106100
   109  H          0.54755300       0.48404700       0.34632700
   110  H          0.45244700       0.51595300       0.84632700
   111  H          0.04755300       0.51595300       0.34632700
   112  H          0.95244700       0.48404700       0.84632700
   113  C          0.36743180       0.51285000       0.32517170
   114  C          0.63256820       0.48715000       0.82517170
   115  C          0.86743180       0.48715000       0.32517170
   116  C          0.13256820       0.51285000       0.82517170
   117  H          0.36400400       0.32878200       0.31588300
   118  H          0.63599600       0.67121800       0.81588300
   119  H          0.86400400       0.67121800       0.31588300
   120  H          0.13599600       0.32878200       0.81588300
   121  H          0.40071100       0.58635600       0.27355300
   122  H          0.59928900       0.41364400       0.77355300
   123  H          0.90071100       0.41364400       0.27355300
   124  H          0.09928900       0.58635600       0.77355300
   125  C          0.26823160       0.61875000       0.32813170
   126  C          0.73176840       0.38125000       0.82813170
   127  C          0.76823160       0.38125000       0.32813170
   128  C          0.23176840       0.61875000       0.82813170
