data_IPIXUB
_symmetry_space_group_name_H-M    'P1'
_symmetry_Int_Tables_number       1
loop_
_symmetry_equiv_pos_site_id
_symmetry_equiv_pos_as_xyz
1 x,y,z
_cell_length_a                   7.61642
_cell_length_b                   5.72562
_cell_length_c                   14.75085
_cell_angle_alpha                90.0
_cell_angle_beta                 94.8812
_cell_angle_gamma                90.0
loop_
_atom_site_label
_atom_site_type_symbol
_atom_site_fract_x
_atom_site_fract_y
_atom_site_fract_z
     1  S          0.61718800       0.15117150       0.77455400
     2  S          0.38281200       0.65117150       0.22544600
     3  C          0.83333000       0.21145000       0.82617140
     4  C          0.16667000       0.71145000       0.17382860
     5  C          0.97733000       0.06654000       0.82082160
     6  C          0.02267000       0.56654000       0.17917840
     7  H          0.96510000       0.92260000       0.78880000
     8  H          0.03490000       0.42260000       0.21120000
     9  C          0.14013000       0.13324000       0.86266150
    10  C          0.85987000       0.63324000       0.13733850
    11  H          0.23880000       0.03330000       0.85880000
    12  H          0.76120000       0.53330000       0.14120000
    13  C          0.16183000       0.34195000       0.90989140
    14  C          0.83817000       0.84195000       0.09010860
    15  C          0.01463000       0.48324000       0.91509150
    16  C         -0.01463000      -0.01676000       0.08490850
    17  H          0.02620000       0.62620000       0.94770000
    18  H          0.97380000       0.12620000       0.05230000
    19  C          0.85183000       0.42064000       0.87395150
    20  C          0.14817000       0.92064000       0.12604850
    21  H          0.75290000       0.51990000       0.87830000
    22  H          0.24710000       0.01990000       0.12170000
    23  C          0.33764000       0.41736000       0.95429180
    24  C          0.66236000       0.91736000       0.04570820
    25  H          0.42110000       0.28720000       0.95380000
    26  H          0.57890000       0.78720000       0.04620000
    27  H          0.32450000       0.46400000       0.01730000
    28  H          0.67550000       0.96400000       0.98270000
    29  H          0.38170000       0.54980000       0.92080000
    30  H          0.61830000       0.04980000       0.07920000
    31  S          0.63419900       0.84843880       0.70471400
    32  S          0.36580100       0.34843880       0.29528600
    33  C          0.69763000       0.92986000       0.59541140
    34  C          0.30237000       0.42986000       0.40458860
    35  C          0.65903000       0.77106000       0.52577160
    36  C          0.34097000       0.27106000       0.47422840
    37  H          0.60040000       0.62920000       0.53740000
    38  H          0.39960000       0.12920000       0.46260000
    39  C          0.70593000       0.81926000       0.43939150
    40  C          0.29407000       0.31926000       0.56060850
    41  H          0.68010000       0.70860000       0.39220000
    42  H          0.31990000       0.20860000       0.60780000
    43  C          0.79033000       0.02694000       0.42003150
    44  C          0.20967000       0.52694000       0.57996850
    45  C          0.82893000       0.18314000       0.49096140
    46  C          0.17107000       0.68314000       0.50903860
    47  H          0.88720000       0.32520000       0.47930000
    48  H          0.11280000       0.82520000       0.52070000
    49  C          0.78433000       0.13664000       0.57841140
    50  C          0.21567000       0.63664000       0.42158860
    51  H          0.81280000       0.24510000       0.62610000
    52  H          0.18720000       0.74510000       0.37390000
    53  C          0.84014000       0.08126000       0.32562170
    54  C          0.15986000       0.58126000       0.67437830
    55  H          0.76800000       0.21110000       0.30020000
    56  H          0.23200000       0.71110000       0.69980000
    57  H          0.81980000       0.94320000       0.28680000
    58  H          0.18020000       0.44320000       0.71320000
    59  H          0.96490000       0.12470000       0.32840000
    60  H          0.03510000       0.62470000       0.67160000
