data_IPIXUB08
_symmetry_space_group_name_H-M    'P1'
_symmetry_Int_Tables_number       1
loop_
_symmetry_equiv_pos_site_id
_symmetry_equiv_pos_as_xyz
1 x,y,z
_cell_length_a                   15.262
_cell_length_b                   5.96204
_cell_length_c                   14.6151
_cell_angle_alpha                90.0
_cell_angle_beta                 115.5614
_cell_angle_gamma                90.0
loop_
_atom_site_label
_atom_site_type_symbol
_atom_site_fract_x
_atom_site_fract_y
_atom_site_fract_z
     1  S          0.20875000       0.13093000       0.45943000
     2  S          0.79125000       0.63093000       0.04057000
     3  S          0.79125000       0.86907000       0.54057000
     4  S          0.20875000       0.36907000       0.95943000
     5  S          0.35466000       0.19793000       0.53883000
     6  S          0.64534000       0.69793000       0.96117000
     7  S          0.64534000       0.80207000       0.46117000
     8  S          0.35466000       0.30207000       0.03883000
     9  C          0.41111100       0.30256000       0.73776000
    10  C          0.58888900       0.80256000       0.76224000
    11  C          0.58888900       0.69744000       0.26224000
    12  C          0.41111100       0.19744000       0.23776000
    13  H          0.43920000       0.16060000       0.75060000
    14  H          0.56080000       0.66060000       0.74940000
    15  H          0.56080000       0.83940000       0.24940000
    16  H          0.43920000       0.33940000       0.25060000
    17  C          0.12391100       0.52106000       0.35346000
    18  C          0.87608900       0.02106000       0.14654000
    19  C          0.87608900       0.47894000       0.64654000
    20  C          0.12391100      -0.02106000       0.85346000
    21  H          0.11710000       0.56660000       0.41090000
    22  H          0.88290000       0.06660000       0.08910000
    23  H          0.88290000       0.43340000       0.58910000
    24  H          0.11710000       0.93340000       0.91090000
    25  C          0.17251100       0.24647000       0.26517000
    26  C          0.82748900       0.74647000       0.23483000
    27  C          0.82748900       0.75353000       0.73483000
    28  C          0.17251100       0.25353000       0.76517000
    29  H          0.19980000       0.10830000       0.26290000
    30  H          0.80020000       0.60830000       0.23710000
    31  H          0.80020000       0.89170000       0.73710000
    32  H          0.19980000       0.39170000       0.76290000
    33  C          0.09161300       0.65657000       0.27077000
    34  C          0.90838700       0.15657000       0.22923000
    35  C          0.90838700       0.34343000       0.72923000
    36  C          0.09161300       0.84343000       0.77077000
    37  H          0.06470000       0.79500000       0.27330000
    38  H          0.93530000       0.29500000       0.22670000
    39  H          0.93530000       0.20500000       0.72670000
    40  H          0.06470000       0.70500000       0.77330000
    41  C          0.13771100       0.38266000       0.18126000
    42  C          0.86228900       0.88266000       0.31874000
    43  C          0.86228900       0.61734000       0.81874000
    44  C          0.13771100       0.11734000       0.68126000
    45  H          0.14080000       0.33350000       0.12220000
    46  H          0.85920000       0.83350000       0.37780000
    47  H          0.85920000       0.66650000       0.87780000
    48  H          0.14080000       0.16650000       0.62220000
    49  C          0.36231000       0.37706000       0.63906000
    50  C          0.63769000       0.87706000       0.86094000
    51  C          0.63769000       0.62294000       0.36094000
    52  C          0.36231000       0.12294000       0.13906000
    53  C          0.37951200       0.79699000       0.88478000
    54  C          0.62048800       0.29699000       0.61522000
    55  C          0.62048800       0.20301000       0.11522000
    56  C          0.37951200       0.70301000       0.38478000
    57  H          0.35930000       0.71200000       0.92810000
    58  H          0.64070000       0.21200000       0.57190000
    59  H          0.64070000       0.28800000       0.07190000
    60  H          0.35930000       0.78800000       0.42810000
    61  H          0.33710000       0.92340000       0.85780000
    62  H          0.66290000       0.42340000       0.64220000
    63  H          0.66290000       0.07660000       0.14220000
    64  H          0.33710000       0.57660000       0.35780000
    65  H          0.44480000       0.84870000       0.92300000
    66  H          0.55520000       0.34870000       0.57700000
    67  H          0.55520000       0.15130000       0.07700000
    68  H          0.44480000       0.65130000       0.42300000
    69  C          0.16691100       0.31476000       0.35356000
    70  C          0.83308900       0.81476000       0.14644000
    71  C          0.83308900       0.68524000       0.64644000
    72  C          0.16691100       0.18524000       0.85356000
    73  C          0.09781300       0.59297000       0.18207000
    74  C          0.90218700       0.09297000       0.31793000
    75  C          0.90218700       0.40703000       0.81793000
    76  C          0.09781300       0.90703000       0.68207000
    77  C          0.37511400       0.65096000       0.79908000
    78  C          0.62488600       0.15096000       0.70092000
    79  C          0.62488600       0.34904000       0.20092000
    80  C          0.37511400       0.84904000       0.29908000
    81  C          0.32661200       0.72307000       0.69887000
    82  C          0.67338800       0.22307000       0.80113000
    83  C          0.67338800       0.27693000       0.30113000
    84  C          0.32661200       0.77693000       0.19887000
    85  H          0.29610000       0.86220000       0.68490000
    86  H          0.70390000       0.36220000       0.81510000
    87  H          0.70390000       0.13780000       0.31510000
    88  H          0.29610000       0.63780000       0.18490000
    89  C          0.06271300       0.74319000       0.09067000
    90  C          0.93728700       0.24319000       0.40933000
    91  C          0.93728700       0.25681000       0.90933000
    92  C          0.06271300       0.75681000       0.59067000
    93  H         -0.00670000       0.75560000       0.06220000
    94  H          0.00670000       0.25560000       0.43780000
    95  H          0.00670000       0.24440000       0.93780000
    96  H         -0.00670000       0.74440000       0.56220000
    97  H          0.08120000       0.68070000       0.04090000
    98  H          0.91880000       0.18070000       0.45910000
    99  H          0.91880000       0.31930000       0.95910000
   100  H          0.08120000       0.81930000       0.54090000
   101  H          0.09130000       0.88910000       0.11020000
   102  H          0.90870000       0.38910000       0.38980000
   103  H          0.90870000       0.11090000       0.88980000
   104  H          0.09130000       0.61090000       0.61020000
   105  C          0.32331000       0.59136000       0.62066000
   106  C          0.67669000       0.09136000       0.87934000
   107  C          0.67669000       0.40864000       0.37934000
   108  C          0.32331000       0.90864000       0.12066000
   109  H          0.29450000       0.64620000       0.55460000
   110  H          0.70550000       0.14620000       0.94540000
   111  H          0.70550000       0.35380000       0.44540000
   112  H          0.29450000       0.85380000       0.05460000
   113  C          0.41851100       0.43876000       0.81766000
   114  C          0.58148900       0.93876000       0.68234000
   115  C          0.58148900       0.56124000       0.18234000
   116  C          0.41851100       0.06124000       0.31766000
   117  H          0.45250000       0.38870000       0.88400000
   118  H          0.54750000       0.88870000       0.61600000
   119  H          0.54750000       0.61130000       0.11600000
   120  H          0.45250000       0.11130000       0.38400000
