data_IPIXUB07
_symmetry_space_group_name_H-M    'P1'
_symmetry_Int_Tables_number       1
loop_
_symmetry_equiv_pos_site_id
_symmetry_equiv_pos_as_xyz
1 x,y,z
_cell_length_a                   7.24665
_cell_length_b                   5.49993
_cell_length_c                   13.9264
_cell_angle_alpha                95.54113
_cell_angle_beta                 97.66514
_cell_angle_gamma                85.0255
loop_
_atom_site_label
_atom_site_type_symbol
_atom_site_fract_x
_atom_site_fract_y
_atom_site_fract_z
     1  C          0.69791200       0.86831200       0.54471300
     2  H          0.73360000       0.73810000       0.58270000
     3  C          0.73211000       0.84881100       0.44831300
     4  H          0.79070000       0.70550000       0.42180000
     5  C          0.67881300       0.04341700       0.39141200
     6  C          0.59131100       0.25761200       0.43101300
     7  H          0.55560000       0.38790000       0.39300000
     8  C          0.55701100       0.27721100       0.52741300
     9  H          0.49850000       0.42050000       0.55390000
    10  C          0.61031400       0.08251700       0.58431200
    11  C          0.70830000       0.02140000       0.28420000
    12  H          0.83730000       0.03730000       0.27850000
    13  H          0.63240000       0.14840000       0.25140000
    14  H          0.67330000       0.86430000       0.25400000
    15  S          0.55035000       0.11787000       0.70371000
    16  C          0.03081100       0.46981600       0.89761700
    17  H          0.05790000       0.33160000       0.93200000
    18  C          0.84909000       0.52861600       0.85631800
    19  H          0.75440000       0.42990000       0.86300000
    20  C          0.80859000       0.73521600       0.80481800
    21  C          0.94981200       0.88281600       0.79481700
    22  H          0.92280000       0.02100000       0.76040000
    23  C          0.13169000       0.82391500       0.83621800
    24  H          0.22620000       0.92270000       0.82940000
    25  C          0.17219000       0.61741500       0.88761800
    26  S          0.57484000       0.77836000       0.75049000
    27  C          0.36831900       0.55130000       0.92740000
    28  H          0.37490000       0.52850000      -0.00490000
    29  H          0.44470000       0.67990000       0.91900000
    30  H          0.41240000       0.40180000       0.89310000
    31  C          0.23051000       0.78011300       0.49091400
    32  H          0.28540000       0.92870000       0.50050000
    33  C          0.18131100       0.67451600       0.56971400
    34  H          0.20320000       0.75250000       0.63200000
    35  C          0.09941100       0.45241600       0.55541400
    36  C          0.06671100       0.33581200       0.46241500
    37  H          0.01190000       0.18720000       0.45280000
    38  C          0.11591200       0.44141600       0.38351400
    39  H          0.09400000       0.36340000       0.32130000
    40  C          0.19781200       0.66351600       0.39781400
    41  C          0.04661700       0.33830000       0.64140000
    42  H          0.06280000       0.16270000       0.62980000
    43  H          0.91840000       0.38620000       0.64820000
    44  H          0.12490000       0.39160000       0.69870000
    45  C          0.81191000       0.39251300       0.10681900
    46  H          0.69190000       0.46740000       0.10630000
    47  C          0.83908900       0.15361300       0.06571900
    48  C          0.01861200       0.04161400       0.06651900
    49  H          0.03670000       0.88170000       0.03900000
    50  C          0.17129000       0.16851500       0.10820000
    51  H          0.29140000       0.09350000       0.10870000
    52  C          0.14421000       0.40741400       0.14920000
    53  C          0.96458800       0.51941300       0.14861800
    54  H          0.94660000       0.67920000       0.17610000
    55  C          0.67180000       0.01330000       0.02030000
    56  H          0.59460000      -0.00810000       0.06850000
    57  H          0.71620000       0.85490000      -0.00790000
    58  H          0.60170000       0.10250000       0.96960000
    59  S          0.34225000       0.55717000       0.20671000
    60  S          0.24624000       0.82125000       0.30068000
