data_IQIMAZ
_symmetry_space_group_name_H-M    'P1'
_symmetry_Int_Tables_number       1
loop_
_symmetry_equiv_pos_site_id
_symmetry_equiv_pos_as_xyz
1 x,y,z
_cell_length_a                   10.528617
_cell_length_b                   12.8092
_cell_length_c                   11.110619
_cell_angle_alpha                90.0
_cell_angle_beta                 100.0225
_cell_angle_gamma                90.0
loop_
_atom_site_label
_atom_site_type_symbol
_atom_site_fract_x
_atom_site_fract_y
_atom_site_fract_z
     1  P          0.84791100       0.41823900       0.19832900
     2  P          0.15208900       0.91823900       0.80167100
     3  O          0.52943000       0.70232000       0.19273000
     4  O          0.47057000       0.20232000       0.80727000
     5  O          0.79253000       0.81783000       0.13323000
     6  O          0.20747000       0.31783000       0.86677000
     7  H          0.87281900       0.81376100       0.13791100
     8  H          0.12718100       0.31376100       0.86208900
     9  O          0.73333000       0.90823000       0.34073000
    10  O          0.26667000       0.40823000       0.65927000
    11  H          0.75666800       0.93710500       0.28031100
    12  H          0.24333200       0.43710500       0.71968900
    13  O          0.78883000       0.52783000       0.15443000
    14  O          0.21117000       0.02783000       0.84557000
    15  O          0.85963000       0.39913000       0.32993000
    16  O          0.14037000       0.89913000       0.67007000
    17  O          0.97933000       0.42443000       0.14863000
    18  O          0.02067000       0.92443000       0.85137000
    19  O          0.84255000       0.06204000       0.21196000
    20  O          0.15745000       0.56204000       0.78804000
    21  O          0.95263000       0.18643000       0.13573000
    22  O          0.04737000       0.68643000       0.86427000
    23  N          0.03554000       0.85843000       0.42573000
    24  N          0.96446000       0.35843000       0.57427000
    25  H          0.95090900       0.85917900       0.40475200
    26  H          0.04909100       0.35917900       0.59524800
    27  H          0.07152100       0.86940800       0.50218500
    28  H          0.92847900       0.36940800       0.49781500
    29  N          0.05103000       0.82443000       0.22583000
    30  N          0.94897000       0.32443000       0.77417000
    31  N          0.25484000       0.80343000       0.15743000
    32  N          0.74516000       0.30343000       0.84257000
    33  N          0.31293000       0.82083000       0.27693000
    34  N          0.68707000       0.32083000       0.72307000
    35  N          0.49824000       0.93784000       0.05324000
    36  N          0.50176000       0.43784000       0.94676000
    37  N          0.76263000       0.32963000       0.11913000
    38  N          0.23737000       0.82963000       0.88087000
    39  C          0.10874000       0.84083000       0.34163000
    40  C          0.89126000       0.34083000       0.65837000
    41  C          0.13034000       0.80664000       0.14264000
    42  C          0.86966000       0.30664000       0.85736000
    43  H          0.08713500       0.79473600       0.06128300
    44  H          0.91286500       0.29473600       0.93871700
    45  C          0.24574000       0.83974000       0.37223000
    46  C          0.75426000       0.33974000       0.62777000
    47  C          0.33694000       0.85724000       0.47654000
    48  C          0.66306000       0.35724000       0.52346000
    49  H          0.31987300       0.87236900       0.55582200
    50  H          0.68012700       0.37236900       0.44417800
    51  C          0.45874000       0.84854000       0.44314000
    52  C          0.54126000       0.34854000       0.55686000
    53  H          0.53910800       0.85712100       0.49607700
    54  H          0.46089200       0.35712100       0.50392300
    55  C          0.44194000       0.82483000       0.31843000
    56  C          0.55806000       0.32483000       0.68157000
    57  C          0.53984000       0.80613000       0.23864000
    58  C          0.46016000       0.30613000       0.76136000
    59  C          0.65034000       0.67294000       0.15644000
    60  C          0.34966000       0.17294000       0.84356000
    61  H          0.64264800       0.67826600       0.06567000
    62  H          0.35735200       0.17826600       0.93433000
    63  C          0.75274000       0.74904000       0.21904000
    64  C          0.24726000       0.24904000       0.78096000
    65  H          0.82819300       0.71038700       0.26550400
    66  H          0.17180700       0.21038700       0.73449600
    67  C          0.68204000       0.81034000       0.30653000
    68  C          0.31796000       0.31034000       0.69347000
    69  H          0.68712900       0.76782000       0.38276600
    70  H          0.31287100       0.26782000       0.61723400
    71  C          0.51784000       0.88153000       0.13364000
    72  C          0.48216000       0.38153000       0.86636000
    73  C          0.67284000       0.56094000       0.19604000
    74  C          0.32716000       0.06094000       0.80396000
    75  H          0.68347200       0.55531800       0.28609900
    76  H          0.31652800       0.05531800       0.71390100
    77  H          0.59881200       0.51694900       0.15921400
    78  H          0.40118800       0.01694900       0.84078600
    79  C          0.09374000       0.47314000       0.20544000
    80  C          0.90626000       0.97314000       0.79456000
    81  C          0.19425000       0.46795000       0.14095000
    82  C          0.80575000       0.96795000       0.85905000
    83  H          0.18260700       0.43635400       0.06238500
    84  H          0.81739300       0.93635400       0.93761500
    85  C          0.31225000       0.50956000       0.19296000
    86  C          0.68775000       0.00956000       0.80704000
    87  H          0.38170600       0.50782000       0.14870000
    88  H          0.61829400       0.00782000       0.85130000
    89  C          0.33036000       0.55346000       0.30797000
    90  C          0.66964000       0.05346000       0.69203000
    91  H          0.41252200       0.58006100       0.34334800
    92  H          0.58747800       0.08006100       0.65665200
    93  C          0.23056000       0.55845000       0.37056000
    94  C          0.76944000       0.05845000       0.62944000
    95  H          0.24327800       0.58886000       0.44966500
    96  H          0.75672200       0.08886000       0.55033500
    97  C          0.10845000       0.51895000       0.31915000
    98  C          0.89155000       0.01895000       0.68085000
    99  H          0.03784000       0.52373900       0.36179400
   100  H          0.96216000       0.02373900       0.63820600
   101  C          0.73934000       0.22674000       0.16644000
   102  C          0.26066000       0.72674000       0.83356000
   103  H          0.72282700       0.23666800       0.25165800
   104  H          0.27717300       0.73666800       0.74834200
   105  C          0.61706000       0.18075000       0.09195000
   106  C          0.38294000       0.68075000       0.90805000
   107  H          0.54377800       0.22659700       0.09759500
   108  H          0.45622200       0.72659700       0.90240500
   109  H          0.60119600       0.11155600       0.12394800
   110  H          0.39880400       0.61155600       0.87605200
   111  H          0.62736100       0.17447800       0.00624600
   112  H          0.37263900       0.67447800      -0.00624600
   113  C          0.84965000       0.14954000       0.17305000
   114  C          0.15035000       0.64954000       0.82695000
   115  C          0.06805000       0.12134000       0.14995000
   116  C          0.93195000       0.62134000       0.85005000
   117  H          0.08971200       0.10584000       0.06857300
   118  H          0.91028800       0.60584000       0.93142700
   119  H          0.05133600       0.05428700       0.18876700
   120  H          0.94866400       0.55428700       0.81123300
   121  C          0.18135000       0.17734000       0.22884000
   122  C          0.81865000       0.67734000       0.77116000
   123  H          0.20092200       0.24083000       0.18308800
   124  H          0.79907800       0.74083000       0.81691200
   125  C          0.14856000       0.21434000       0.35255000
   126  C          0.85144000       0.71434000       0.64745000
   127  H          0.22007200       0.25851500       0.39397500
   128  H          0.77992800       0.75851500       0.60602500
   129  H          0.07015500       0.25845700       0.33610400
   130  H          0.92984500       0.75845700       0.66389600
   131  C          0.12587000       0.12745000       0.43835000
   132  C          0.87413000       0.62745000       0.56165000
   133  H          0.04964700       0.08714000       0.40163200
   134  H          0.95035300       0.58714000       0.59836800
   135  H          0.11172800       0.15723300       0.51608300
   136  H          0.88827200       0.65723300       0.48391700
   137  H          0.20129400       0.08138300       0.45266100
   138  H          0.79870600       0.58138300       0.54733900
   139  C          0.29935000       0.10555000       0.24175000
   140  C          0.70065000       0.60555000       0.75825000
   141  H          0.31871800       0.09134500       0.15924400
   142  H          0.68128200       0.59134500       0.84075600
   143  H          0.27715800       0.03806600       0.27644500
   144  H          0.72284200       0.53806600       0.72355500
   145  C          0.42116000       0.14886000       0.32217000
   146  C          0.57884000       0.64886000       0.67783000
   147  H          0.44418700       0.21566000       0.28874000
   148  H          0.55581300       0.71566000       0.71126000
   149  H          0.49217200       0.09922300       0.32351000
   150  H          0.50782800       0.59922300       0.67649000
   151  H          0.40474700       0.15936600       0.40544300
   152  H          0.59525300       0.65936600       0.59455700
   153  H          0.68950000       0.35860000       0.12070000
   154  H          0.31050000       0.85860000       0.87930000
