data_IQIMAZ04
_symmetry_space_group_name_H-M    'P1'
_symmetry_Int_Tables_number       1
loop_
_symmetry_equiv_pos_site_id
_symmetry_equiv_pos_as_xyz
1 x,y,z
_cell_length_a                   10.037
_cell_length_b                   12.22
_cell_length_c                   11.4418
_cell_angle_alpha                90.0
_cell_angle_beta                 104.47
_cell_angle_gamma                90.0
loop_
_atom_site_label
_atom_site_type_symbol
_atom_site_fract_x
_atom_site_fract_y
_atom_site_fract_z
     1  N          0.34088000       0.83741200       0.27221300
     2  N          0.65912000       0.33741200       0.72778700
     3  C          0.27091100       0.84951200       0.36231000
     4  C          0.72908900       0.34951200       0.63769000
     5  C          0.12801100       0.85331100       0.33241100
     6  C          0.87198900       0.35331100       0.66758900
     7  N          0.05488000       0.84491300       0.21241200
     8  N          0.94512000       0.34491300       0.78758800
     9  C          0.12461000       0.83281500       0.12231000
    10  C          0.87539000       0.33281500       0.87769000
    11  H          0.07565700       0.82728900       0.04208000
    12  H          0.92434300       0.32728900       0.95792000
    13  N          0.26761100       0.82911400       0.15221200
    14  N          0.73238900       0.32911400       0.84778800
    15  C          0.05291600       0.46461600       0.22920000
    16  C          0.94708400       0.96461600       0.77080000
    17  C          0.07941900       0.51001900       0.34420000
    18  C          0.92058100       0.01001900       0.65580000
    19  H          0.01913600       0.49732600       0.39294700
    20  H          0.98086400      -0.00267400       0.60705300
    21  C          0.19620000       0.57421800       0.38720000
    22  C          0.80380000       0.07421800       0.61280000
    23  H          0.21353200       0.60453400       0.46350500
    24  H          0.78646800       0.10453400       0.53649500
    25  C          0.28591600       0.59311700       0.31420000
    26  C          0.71408400       0.09311700       0.68580000
    27  H          0.36378500       0.63605800       0.34222700
    28  H          0.63621500       0.13605800       0.65777300
    29  C          0.25941800       0.54820000       0.19920000
    30  C          0.74058200       0.04820000       0.80080000
    31  H          0.31964400       0.56037400       0.15039100
    32  H          0.68035600       0.06037400       0.84960900
    33  C          0.14320000       0.48351900       0.15671800
    34  C          0.85680000       0.98351900       0.84328200
    35  H          0.12524800       0.45316500       0.07983100
    36  H          0.87475200       0.95316500       0.92016900
    37  O          0.75820000       0.50920000       0.16630000
    38  O          0.24180000       0.00920000       0.83370000
    39  N          0.06471700       0.86671500       0.41130000
    40  N          0.93528300       0.36671500       0.58870000
    41  H          0.10893600       0.87393100       0.48489100
    42  H          0.89106400       0.37393100       0.51510900
    43  H          0.97623000       0.86892100       0.39102000
    44  H          0.02377000       0.36892100       0.60898000
    45  O          0.69240000       0.09820000       0.29330000
    46  O          0.30760000       0.59820000       0.70670000
    47  C          0.65140000       0.17271800       0.23370000
    48  C          0.34860000       0.67271800       0.76630000
    49  O          0.53020000       0.22550000       0.22630000
    50  O          0.46980000       0.72550000       0.77370000
    51  O          0.81421800       0.36820000       0.33720000
    52  O          0.18578200       0.86820000       0.66280000
    53  N          0.52220000       0.97581700       0.05530000
    54  N          0.47780000       0.47581700       0.94470000
    55  C          0.54231600       0.91520000       0.12820000
    56  C          0.45768400       0.41520000       0.87180000
    57  O          0.52711700       0.72091800       0.15630000
    58  O          0.47288300       0.22091800       0.84370000
    59  C          0.36920000       0.86120000       0.46230000
    60  C          0.63080000       0.36120000       0.53770000
    61  H          0.35866900       0.87124600       0.53952900
    62  H          0.64133100       0.37124600       0.46047100
    63  C          0.48921800       0.85481800       0.42540000
    64  C          0.51078200       0.35481800       0.57460000
    65  H          0.57624500       0.86247100       0.47670700
    66  H          0.42375500       0.36247100       0.52329300
    67  C          0.14630000       0.20550000       0.43160000
    68  C          0.85370000       0.70550000       0.56840000
    69  H          0.15625500       0.28199500       0.44524300
    70  H          0.84374500       0.78199500       0.55475700
    71  H          0.12982700       0.16936100       0.50151200
    72  H          0.87017300       0.66936100       0.49848800
    73  H          0.06965800       0.19108000       0.36339100
    74  H          0.93034200       0.69108000       0.63660900
    75  C          0.65030000       0.56120000       0.18170000
    76  C          0.34970000       0.06120000       0.81830000
    77  H          0.65370400       0.56383900       0.26631000
    78  H          0.34629600       0.06383900       0.73369000
    79  H          0.56847000       0.52005000       0.14145100
    80  H          0.43153000       0.02005000       0.85854900
    81  C          0.69930000       0.20830000       0.11530000
    82  C          0.30070000       0.70830000       0.88470000
    83  H          0.62459100       0.19174300       0.04358400
    84  H          0.37540900       0.69174300       0.95641600
    85  C          0.75320000       0.74921600       0.19930000
    86  C          0.24680000       0.24921600       0.80070000
    87  H          0.83230700       0.70662600       0.24283600
    88  H          0.16769300       0.20662600       0.75716400
    89  C          0.69720000       0.81020000       0.29620000
    90  C          0.30280000       0.31020000       0.70380000
    91  H          0.69811300       0.75810800       0.36205700
    92  H          0.30188700       0.25810800       0.63794300
    93  C          0.55431300       0.82051900       0.22620000
    94  C          0.44568700       0.32051900       0.77380000
    95  C          0.63781600       0.66220000       0.13830000
    96  C          0.36218400       0.16220000       0.86170000
    97  H          0.63172500       0.65970200       0.05108600
    98  H          0.36827500       0.15970200       0.94891400
    99  C          0.19540000       0.10620000       0.12440000
   100  C          0.80460000       0.60620000       0.87560000
   101  H          0.14560900       0.07168800       0.17562900
   102  H          0.85439100       0.57168800       0.82437100
   103  H          0.26985500       0.05954400       0.11621300
   104  H          0.73014500       0.55954400       0.88378700
   105  H          0.13438900       0.11774000       0.04561000
   106  H          0.86561100       0.61774000       0.95439000
   107  C          0.46501700       0.83520000       0.29820000
   108  C          0.53498300       0.33520000       0.70180000
   109  O          0.79361800       0.80520000       0.12120000
   110  O          0.20638200       0.30520000       0.87880000
   111  H          0.87796100       0.80489200       0.13667400
   112  H          0.12203900       0.30489200       0.86332600
   113  C          0.27640000       0.15920000       0.40550000
   114  C          0.72360000       0.65920000       0.59450000
   115  H          0.25925700       0.08302000       0.38055600
   116  H          0.74074300       0.58302000       0.61944400
   117  H          0.34757600       0.15869100       0.48035900
   118  H          0.65242400       0.65869100       0.51964100
   119  C          0.33430000       0.21730000       0.31030000
   120  C          0.66570000       0.71730000       0.68970000
   121  H          0.35482600       0.29335900       0.33537700
   122  H          0.64517400       0.79335900       0.66462300
   123  C          0.46730000       0.15820000       0.31230000
   124  C          0.53270000       0.65820000       0.68770000
   125  H          0.44950000       0.08289200       0.28404700
   126  H          0.55050000       0.58289200       0.71595300
   127  H          0.52732400       0.15692700       0.39299300
   128  H          0.47267600       0.65692700       0.60700700
   129  C          0.83040000       0.13040000       0.11350000
   130  C          0.16960000       0.63040000       0.88650000
   131  H          0.83702800       0.07266800       0.17139100
   132  H          0.16297200       0.57266800       0.82860900
   133  H          0.91256400       0.17323600       0.13161600
   134  H          0.08743600       0.67323600       0.86838400
   135  H          0.81768100       0.09848900       0.03394900
   136  H          0.18231900       0.59848900       0.96605100
   137  P          0.81101000       0.39641000       0.21371400
   138  P          0.18899000       0.89641000       0.78628600
   139  O          0.95271500       0.39211600       0.17420000
   140  O          0.04728500       0.89211600       0.82580000
   141  N          0.72301900       0.31051600       0.11920000
   142  N          0.27698100       0.81051600       0.88080000
   143  H          0.68016200       0.34251200       0.05388500
   144  H          0.31983800       0.84251200       0.94611500
   145  O          0.77120000       0.89641800       0.34240000
   146  O          0.22880000       0.39641800       0.65760000
   147  H          0.77372400       0.93958600       0.28784700
   148  H          0.22627600       0.43958600       0.71215300
   149  C          0.25230000       0.21591800       0.17840000
   150  C          0.74770000       0.71591800       0.82160000
   151  H          0.17551500       0.26623800       0.16919200
   152  H          0.82448500       0.76623800       0.83080800
   153  H          0.31127100       0.24461600       0.12942400
   154  H          0.68872900       0.74461600       0.87057600
