data_IQIMAZ01
_symmetry_space_group_name_H-M    'P1'
_symmetry_Int_Tables_number       1
loop_
_symmetry_equiv_pos_site_id
_symmetry_equiv_pos_as_xyz
1 x,y,z
_cell_length_a                   8.556511
_cell_length_b                   10.545616
_cell_length_c                   17.1472
_cell_angle_alpha                96.1054
_cell_angle_beta                 99.2194
_cell_angle_gamma                94.9374
loop_
_atom_site_label
_atom_site_type_symbol
_atom_site_fract_x
_atom_site_fract_y
_atom_site_fract_z
     1  P          0.27817000       0.62265000       0.70443000
     2  O          0.62371500       0.29171000       0.66107000
     3  O          0.73121500       0.44041100       0.49627000
     4  H          0.68877000       0.40442700       0.45075500
     5  O          0.79621500       0.56701100       0.64607000
     6  H          0.80489000       0.62901800       0.61949400
     7  O          0.40420000       0.53211700       0.73631100
     8  O          0.38181800       0.74621600       0.75229000
     9  O          0.24020000       0.62121500       0.62039000
    10  O          0.20130000       0.39630000       0.87371500
    11  O          0.94720000       0.40611400       0.82671000
    12  N          0.11701900       0.60111700       0.74321100
    13  H          0.05240100       0.65803300       0.72849400
    14  N          0.70291800       0.04231300       0.57229000
    15  N          0.78620000       0.03811300       0.64699000
    16  N          0.77520000       0.80888600       0.60241000
    17  N          0.66020000       0.71818500       0.47771000
    18  H          0.68015600       0.64787800       0.49979300
    19  H          0.55681800       0.71132900       0.45722200
    20  N          0.00930000       0.31141600       0.63731000
    21  C          0.59920000       0.42011600       0.68591200
    22  H          0.66544600       0.45075800       0.73907800
    23  C          0.64220000       0.50321700       0.62471100
    24  H          0.56114700       0.56380500       0.61136200
    25  C          0.64120000       0.39761500       0.55461000
    26  H          0.52834600       0.37261300       0.52790800
    27  C          0.70120000       0.28451800       0.59401100
    28  C          0.65720000       0.15661600       0.54441200
    29  C          0.57220000       0.11791500       0.46791100
    30  H          0.52375400       0.17357400       0.43332100
    31  C          0.56820000      -0.00801800       0.45051100
    32  H          0.51481200       0.94346800       0.40217800
    33  C          0.65220000       0.94298700       0.51341000
    34  C          0.69820000       0.81978200       0.53191400
    35  C          0.81830000       0.91680000       0.65471300
    36  H          0.87866900       0.90502300       0.70429600
    37  C          0.87330000       0.30431600       0.62171200
    38  C          0.41830000       0.41420000       0.69241700
    39  H          0.35116800       0.40432400       0.63902000
    40  H          0.38696200       0.34096200       0.72069400
    41  C          0.33730000       0.86820000       0.74531600
    42  C          0.27830000       0.92930000       0.81020000
    43  H          0.26223900       0.88271600       0.85270600
    44  C          0.24140000       0.05340000       0.81230000
    45  H          0.20250300       0.09182400       0.85694400
    46  C          0.25840000       0.11940000       0.75230000
    47  H          0.22982800       0.20436100       0.75189600
    48  C          0.32540000       0.05430000       0.68230000
    49  H          0.34139700       0.10002200       0.63857900
    50  C          0.36030000       0.93030000       0.68191700
    51  H          0.40014400       0.88785500       0.63845900
    52  C          0.11630000       0.58920000       0.82611300
    53  H          0.22218800       0.62862000       0.85568300
    54  C         -0.01170000       0.67330000       0.85691600
    55  H          0.02962000       0.76427200       0.86395600
    56  H          0.96704800       0.64842500       0.90795100
    57  H          0.88951400       0.65966100       0.81792900
    58  C          0.09640000       0.45630000       0.84661700
    59  C          0.91430000       0.27320000       0.83821900
    60  H          0.00945400       0.24285500       0.86834400
    61  H          0.88652300       0.21917500       0.78588800
    62  C          0.77940000       0.25830000       0.88320000
    63  H          0.68428300       0.27627700       0.84478000
    64  C          0.74950000       0.11530000       0.88930000
    65  H          0.78052100       0.11489400       0.94727200
    66  H          0.63123600       0.10372300       0.88021400
    67  C          0.78160000       0.98060000       0.86030000
    68  H          0.76771600       0.97057600       0.80206400
    69  H          0.70688900       0.91877600       0.87753400
    70  H          0.89079600       0.96819600       0.88256300
    71  C          0.77340000       0.34230000       0.95820000
    72  H          0.81275500       0.43090000       0.95280000
    73  H          0.84447500       0.31257200       0.00247900
    74  C          0.60440000       0.33830000       0.97620000
    75  H          0.54470300       0.39688100       0.94559200
    76  H          0.60785400       0.36315900       0.03319000
    77  H          0.55038500       0.25040900       0.96150900
    78  P          0.56756000       0.36104000       0.25753000
    79  O          0.00671400       0.70349000       0.30227000
    80  O          0.20941500       0.55501100       0.46028000
    81  H          0.20263000       0.58010100       0.50756000
    82  O          0.15071500       0.43261100       0.30997000
    83  H          0.16466600       0.36584100       0.33170600
    84  O          0.71101400       0.43171100       0.22607000
    85  O          0.55631500       0.22531100       0.20638000
    86  O          0.59291700       0.36051200       0.34287000
    87  O          0.17720000       0.58720000       0.11221400
    88  O          0.43830000       0.62561600       0.13311100
    89  N          0.40551700       0.41281400       0.22298000
    90  H          0.40076000       0.48867300       0.24874800
    91  N          0.15721700       0.95321300       0.39409000
    92  N          0.21291800       0.97351300       0.32548000
    93  N          0.20771800       0.19801300       0.36629000
    94  N          0.15320000       0.28011500       0.48781000
    95  H          0.15890800       0.35256900       0.46561500
    96  H          0.06048300       0.27176100       0.50546300
    97  N          0.41120000       0.70711200       0.32701000
    98  C          0.94820000       0.56941500       0.27341000
    99  H         -0.01713000       0.54363300       0.22146000
   100  C          0.02211900       0.49061600       0.33671100
   101  H          0.94119400       0.42486100       0.34903200
   102  C          0.08020000       0.59371400       0.40841100
   103  H         -0.00882900       0.61160500       0.43777500
   104  C          0.12720000       0.71241400       0.36471200
   105  C          0.12220000       0.83691500       0.41921100
   106  C          0.07520000       0.85921700       0.48941300
   107  H          0.04316400       0.79487900       0.52028300
   108  C          0.07820000      -0.00708200       0.51121300
   109  H          0.04858700       0.03434200       0.55769200
   110  C          0.13520000       0.05131800       0.45091000
   111  C          0.16120000       0.17591600       0.43271200
   112  C          0.22820000       0.09391900       0.31551200
   113  H          0.25822400       0.11225400       0.26654600
   114  C          0.28530000       0.71041400       0.34181100
   115  C          0.77020000       0.56211500       0.26231100
   116  H          0.73512600       0.58020100       0.31423600
   117  H          0.73050800       0.62519300       0.22722900
   118  C          0.67730000       0.14271900       0.21071300
   119  C          0.67830000       0.05920000       0.26511700
   120  H          0.60863800       0.06234000       0.30302300
   121  C          0.78640000       0.96470000       0.26391900
   122  H          0.78911900       0.90471400       0.30124800
   123  C          0.88330000       0.96080000       0.21141800
   124  H          0.95351100       0.89552900       0.20996000
   125  C          0.88330000       0.05430000       0.15631800
   126  H          0.95239900       0.05193100       0.11831500
   127  C          0.78330000       0.14520000       0.15911600
   128  H          0.78649500       0.21074600       0.12536500
   129  C          0.34420000       0.41841900       0.14071300
   130  H          0.42868900       0.39389700       0.10952000
   131  C          0.19630000       0.31920000       0.11121600
   132  H          0.22856400       0.23233700       0.11130800
   133  H          0.14864900       0.33186900       0.05708600
   134  H          0.11824000       0.33100800       0.14672900
   135  C          0.31030000       0.55030000       0.12531400
   136  C          0.42340000       0.76530000       0.12751900
   137  H          0.51455900       0.81855600       0.16173500
   138  H          0.32347300       0.78970900       0.14398900
   139  C          0.42350000       0.78030000       0.03820000
   140  H          0.31921500       0.73853400       0.00665300
   141  C          0.43250000       0.92230000       0.03230000
   142  H          0.44414500       0.93902600       0.97725300
   143  H          0.52454100       0.96831600       0.06958100
   144  C          0.27760000       0.96840000       0.05230000
   145  H          0.18966600       0.93698900       0.00815300
   146  H          0.28740700       0.06172100       0.06081600
   147  H          0.25460000       0.93373900       0.10071400
   148  C          0.56050000       0.72740000      -0.00130000
   149  H          0.52873000       0.63446800       0.98135900
   150  H          0.56471200       0.76895400       0.95029900
   151  C          0.72760000       0.73950000       0.04530000
   152  H          0.80309600       0.76229400       0.01017400
   153  H          0.74967300       0.65752100       0.06437600
   154  H          0.73846500       0.80634400       0.09030000
