data_IREYUB01
_symmetry_space_group_name_H-M    'P1'
_symmetry_Int_Tables_number       1
loop_
_symmetry_equiv_pos_site_id
_symmetry_equiv_pos_as_xyz
1 x,y,z
_cell_length_a                   9.0397
_cell_length_b                   9.7709
_cell_length_c                   10.1929
_cell_angle_alpha                108.563
_cell_angle_beta                 98.363
_cell_angle_gamma                93.503
loop_
_atom_site_label
_atom_site_type_symbol
_atom_site_fract_x
_atom_site_fract_y
_atom_site_fract_z
     1  S          0.67576400       0.59292400       0.36660400
     2  S          0.32423600       0.40707600       0.63339600
     3  O          0.17270110       0.84654120       0.48045110
     4  O          0.82729890       0.15345880       0.51954890
     5  O          0.22110130       0.06573130       0.72503120
     6  O          0.77889870       0.93426870       0.27496880
     7  O          0.29305120       0.43875130       0.12306120
     8  O          0.70694880       0.56124870       0.87693880
     9  N          0.54342140       0.41010140       0.11436130
    10  N          0.45657860       0.58989860       0.88563870
    11  N          0.80713140       0.43003150       0.16023130
    12  N          0.19286860       0.56996850       0.83976870
    13  C          0.67512160       0.46423160       0.19672150
    14  C          0.32487840       0.53576840       0.80327850
    15  C          0.30697150       0.86454160       0.57264140
    16  C          0.69302850       0.13545840       0.42735860
    17  C          0.42679170       0.46950160       0.17695150
    18  C          0.57320830       0.53049840       0.82304850
    19  C          0.47906160       0.57982160       0.32300150
    20  C          0.52093840       0.42017840       0.67699850
    21  C          0.38286170       0.65478160       0.39754150
    22  C          0.61713830       0.34521840       0.60245850
    23  H          0.28219100       0.63288900       0.35486800
    24  H          0.71780900       0.36711100       0.64513200
    25  C          0.33290170       0.97749160       0.70284150
    26  C          0.66709830       0.02250840       0.29715850
    27  C          0.41337160       0.76698160       0.53744150
    28  C          0.58662840       0.23301840       0.46255850
    29  C          0.54291180       0.78057180       0.63836160
    30  C          0.45708820       0.21942820       0.36163840
    31  H          0.61334800       0.71476700       0.61817200
    32  H          0.38665200       0.28523300       0.38182800
    33  C          0.81472190       0.31288190       0.02941170
    34  C          0.18527810       0.68711810       0.97058830
    35  H          0.88709600       0.34451500       0.98046700
    36  H          0.11290400       0.65548500       0.01953300
    37  H          0.71712700       0.28914800       0.96855900
    38  H          0.28287300       0.71085200       0.03144100
    39  C          0.95147180       0.47462000       0.25847180
    40  C          0.04852820       0.52538000       0.74152820
    41  H          0.94057200       0.55426800       0.34108400
    42  H          0.05942800       0.44573200       0.65891600
    43  H          0.02748300       0.50761300       0.21381800
    44  H          0.97251700       0.49238700       0.78618200
    45  C          0.56633190       0.89042000       0.76671170
    46  C          0.43366810       0.10958000       0.23328830
    47  H          0.65193400       0.89707000       0.83224100
    48  H          0.34806600       0.10293000       0.16775900
    49  C          0.46412190      -0.00916810       0.79929160
    50  C          0.53587810       0.00916810       0.20070840
    51  H          0.48272000       0.06650000       0.88467700
    52  H          0.51728000       0.93350000       0.11532300
    53  C          0.86132000       0.17992000       0.06332000
    54  C          0.13868000       0.82008000       0.93668000
    55  H          0.87576900       0.10608200       0.97777300
    56  H          0.12423100       0.89391800       0.02222700
    57  H          0.78154700       0.14060900       0.09979600
    58  H          0.21845300       0.85939100       0.90020400
    59  C          0.24472000       0.18535190       0.85504180
    60  C          0.75528000       0.81464810       0.14495820
    61  H          0.25065200       0.14865700       0.93231300
    62  H          0.74934800       0.85134300       0.06768700
    63  H          0.16235600       0.24302200       0.85600400
    64  H          0.83764400       0.75697800       0.14399600
    65  H          0.33691600       0.24423200       0.86356900
    66  H          0.66308400       0.75576800       0.13643100
    67  C          0.00712000       0.21612000       0.17152000
    68  C         -0.00712000       0.78388000       0.82848000
    69  H          0.02573500       0.13223400       0.20019600
    70  H          0.97426500       0.86776600       0.79980400
    71  H          0.09053600       0.23704200       0.12822500
    72  H          0.90946400       0.76295800       0.87177500
    73  C         -0.00018000       0.34642000       0.30122000
    74  C          0.00018000       0.65358000       0.69878000
    75  H          0.92867800       0.31998000       0.35420500
    76  H          0.07132200       0.68002000       0.64579500
    77  H          0.09790000       0.37358000       0.36115500
    78  H          0.90210000       0.62642000       0.63884500
    79  C          0.16533000       0.94543000       0.40212000
    80  C          0.83467000       0.05457000       0.59788000
    81  H          0.19268200       0.04313300       0.46543600
    82  H          0.80731800       0.95686700       0.53456400
    83  H          0.06465200       0.93638300       0.35214400
    84  H          0.93534800       0.06361700       0.64785600
    85  H          0.23358900       0.92289700       0.33637600
    86  H          0.76641100       0.07710300       0.66362400
