data_IREYUB
_symmetry_space_group_name_H-M    'P1'
_symmetry_Int_Tables_number       1
loop_
_symmetry_equiv_pos_site_id
_symmetry_equiv_pos_as_xyz
1 x,y,z
_cell_length_a                   6.90666
_cell_length_b                   10.35371
_cell_length_c                   12.551413
_cell_angle_alpha                96.9554
_cell_angle_beta                 103.3383
_cell_angle_gamma                100.5763
loop_
_atom_site_label
_atom_site_type_symbol
_atom_site_fract_x
_atom_site_fract_y
_atom_site_fract_z
     1  S          0.65086600       0.83215500       0.77842400
     2  S          0.34913400       0.16784500       0.22157600
     3  O          0.78210170       0.35822130       0.60832100
     4  O          0.21789830       0.64177870       0.39167900
     5  O          0.17212000       0.80706160       0.73478140
     6  O          0.82788000       0.19293840       0.26521860
     7  O          0.45062000       0.16206140       0.56308130
     8  O          0.54938000       0.83793860       0.43691870
     9  N          0.01662000       0.97263160       0.78580130
    10  N         -0.01662000       0.02736840       0.21419870
    11  N          0.78982000       0.09519160       0.83310140
    12  N          0.21018000       0.90480840       0.16689860
    13  C          0.61482000       0.38220180       0.64190140
    14  C          0.38518000       0.61779820       0.35809860
    15  C          0.62412000       0.50696180       0.70141140
    16  C          0.37588000       0.49303820       0.29858860
    17  C          0.80322000       0.61388190       0.71470140
    18  C          0.19678000       0.38611810       0.28529860
    19  H          0.91650000       0.58650000       0.69980000
    20  H          0.08350000       0.41350000       0.30020000
    21  C          0.44113000       0.27936190       0.62121160
    22  C          0.55887000       0.72063810       0.37878840
    23  C          0.02372000       0.84272000       0.75391150
    24  C         -0.02372000       0.15728000       0.24608850
    25  C          0.82732000       0.74480180       0.74511140
    26  C          0.17268000       0.25519820       0.25488860
    27  C          0.83762000       0.98184180       0.80142140
    28  C          0.16238000       0.01815820       0.19857860
    29  C          0.58973000       0.10512000       0.85065180
    30  C          0.41027000       0.89488000       0.14934820
    31  H          0.50380000       0.01650000       0.83820000
    32  H          0.49620000       0.98350000       0.16180000
    33  H          0.52430000       0.15500000       0.79790000
    34  H          0.47570000       0.84500000       0.20210000
    35  C          0.45853000       0.52402000       0.74488190
    36  C          0.54147000       0.47598000       0.25511810
    37  H          0.46350000       0.60500000       0.78770000
    38  H          0.53650000       0.39500000       0.21230000
    39  C          0.27823000       0.30102000       0.66232190
    40  C          0.72177000       0.69898000       0.33767810
    41  H          0.16130000       0.23380000       0.64790000
    42  H          0.83870000       0.76620000       0.35210000
    43  C          0.28993000       0.42262000       0.72482000
    44  C          0.71007000       0.57738000       0.27518000
    45  H          0.18130000       0.43590000       0.75380000
    46  H          0.81870000       0.56410000       0.24620000
    47  C          0.93763000       0.22292000       0.85430180
    48  C          0.06237000       0.77708000       0.14569820
    49  H          0.88970000       0.27830000       0.80120000
    50  H          0.11030000       0.72170000       0.19880000
    51  H          0.06770000       0.20740000       0.84530000
    52  H          0.93230000       0.79260000       0.15470000
    53  C          0.76594000       0.35423000       0.49262170
    54  C          0.23406000       0.64577000       0.50737830
    55  H          0.64920000       0.28690000       0.45060000
    56  H          0.35080000       0.71310000       0.54940000
    57  H          0.88680000       0.33350000       0.47600000
    58  H          0.11320000       0.66650000       0.52400000
    59  H          0.75080000       0.43940000       0.47340000
    60  H          0.24920000       0.56060000       0.52660000
    61  C          0.61324000       0.17292000       0.96602000
    62  C          0.38676000       0.82708000       0.03398000
    63  H          0.66370000       0.11760000       0.01840000
    64  H          0.33630000       0.88240000       0.98160000
    65  H          0.48130000       0.18470000       0.97490000
    66  H          0.51870000       0.81530000       0.02510000
    67  C          0.96374000       0.29282000       0.96972000
    68  C          0.03626000       0.70718000       0.03028000
    69  H          0.05320000       0.38000000       0.98110000
    70  H          0.94680000       0.62000000       0.01890000
    71  H          0.02790000       0.24230000       0.02240000
    72  H         -0.02790000       0.75770000       0.97760000
    73  C          0.76134000       0.30903000      -0.00867000
    74  C          0.23866000       0.69097000       0.00867000
    75  H          0.70380000       0.36800000       0.94480000
    76  H          0.29620000       0.63200000       0.05520000
    77  H          0.78260000       0.34860000       0.06840000
    78  H          0.21740000       0.65140000       0.93160000
    79  C          0.27144000       0.05753000       0.53132000
    80  C          0.72856000       0.94247000       0.46868000
    81  H          0.23980000       0.02920000       0.59660000
    82  H          0.76020000       0.97080000       0.40340000
    83  H          0.29450000       0.98350000       0.48550000
    84  H          0.70550000       0.01650000       0.51450000
    85  H          0.15940000       0.08930000       0.49040000
    86  H          0.84060000       0.91070000       0.50960000
