data_IREYUB03
_symmetry_space_group_name_H-M    'P1'
_symmetry_Int_Tables_number       1
loop_
_symmetry_equiv_pos_site_id
_symmetry_equiv_pos_as_xyz
1 x,y,z
_cell_length_a                   7.91694
_cell_length_b                   11.08134
_cell_length_c                   11.53585
_cell_angle_alpha                109.96901
_cell_angle_beta                 101.43801
_cell_angle_gamma                110.31001
loop_
_atom_site_label
_atom_site_type_symbol
_atom_site_fract_x
_atom_site_fract_y
_atom_site_fract_z
     1  S          0.60441700       0.35846400       0.16132400
     2  S          0.39558300       0.64153600       0.83867600
     3  O          0.96512170       0.85279110       0.62173110
     4  O          0.03487830       0.14720890       0.37826890
     5  O          0.91422000       0.72055130       0.17945120
     6  O          0.08578000       0.27944870       0.82054880
     7  O          0.96082000       0.81798130       0.83797110
     8  O          0.03918000       0.18201870       0.16202890
     9  N          0.72012000       0.48943140       0.01767130
    10  N          0.27988000       0.51056860       0.98232870
    11  N          0.50903000       0.24555150       0.89882870
    12  N          0.49097000       0.75444850       0.10117130
    13  C          0.80873000       0.59483170       0.14593160
    14  C          0.19127000       0.40516830       0.85406840
    15  C          0.76273000       0.54119160       0.24491150
    16  C          0.23727000       0.45880840       0.75508850
    17  C          0.61083000       0.36508170       0.01019150
    18  C          0.38917000       0.63491830      -0.01019150
    19  C          0.83793000       0.62836180       0.37412160
    20  C          0.16207000       0.37163820       0.62587840
    21  H          0.91439300       0.72418400       0.39655000
    22  H          0.08560700       0.27581600       0.60345000
    23  C          0.88822000       0.71548160       0.60965150
    24  C          0.11178000       0.28451840       0.39034850
    25  C          0.88753000       0.69570190       0.72280160
    26  C          0.11247000       0.30429810       0.27719840
    27  C          0.37883000       0.10837180       0.88854820
    28  C          0.62117000       0.89162820       0.11145180
    29  H          0.24679800       0.08380000       0.84079700
    30  H          0.75320200       0.91620000       0.15920300
    31  H          0.38837800       0.11662500       0.97632500
    32  H          0.61162200       0.88337500       0.02367500
    33  C          0.82083000       0.59909170       0.48637160
    34  C          0.17917000       0.40090830       0.51362840
    35  C          0.42883000      -0.00882000       0.81748000
    36  C          0.57117000       0.00882000       0.18252000
    37  H          0.33432400       0.89953700       0.80480800
    38  H          0.66567600       0.10046300       0.19519200
    39  H          0.55422400       0.00954800       0.87122300
    40  H          0.44577600      -0.00954800       0.12877700
    41  C          0.43283000      -0.01632000       0.68388000
    42  C          0.56717000       0.01632000       0.31612000
    43  H          0.47494400       0.91280200       0.64327700
    44  H          0.52505600       0.08719800       0.35672300
    45  H          0.30385600       0.95402100       0.62624900
    46  H          0.69614400       0.04597900       0.37375100
    47  C          0.81763000       0.55912000       0.71277190
    48  C          0.18237000       0.44088000       0.28722810
    49  H          0.81649500       0.54473000       0.78753200
    50  H          0.18350500       0.45527000       0.21246800
    51  C          0.51324000       0.24302000       0.77120830
    52  C          0.48676000       0.75698000       0.22879170
    53  H          0.60597100       0.33612200       0.78562400
    54  H          0.39402900       0.66387800       0.21437600
    55  H          0.38710700       0.22327000       0.71722600
    56  H          0.61289300       0.77673000       0.28277400
    57  C          0.56813000       0.12852000       0.70028000
    58  C          0.43187000       0.87148000       0.29972000
    59  H          0.56325700       0.12371700       0.61406300
    60  H          0.43674300       0.87628300       0.38593700
    61  H          0.69920500       0.15347200       0.75028800
    62  H          0.30079500       0.84652800       0.24971200
    63  C          0.83654000       0.91612000       0.62782000
    64  C          0.16346000       0.08388000       0.37218000
    65  H          0.72721200       0.86204300       0.54648800
    66  H          0.27278800       0.13795700       0.45351200
    67  H          0.90193900       0.01338100       0.64107600
    68  H          0.09806100      -0.01338100       0.35892400
    69  H          0.79352600       0.91566400       0.69990800
    70  H          0.20647400       0.08433600       0.30009200
    71  C         -0.02147000       0.80122000       0.95659180
    72  C          0.02147000       0.19878000       0.04340820
    73  H          0.85300600       0.74396500       0.95324700
    74  H          0.14699400       0.25603500       0.04675300
    75  H          0.03556000       0.89403500       0.03123800
    76  H          0.96444000       0.10596500       0.96876200
    77  H          0.05882300       0.75442400       0.96496600
    78  H          0.94117700       0.24557600       0.03503400
    79  C          0.75044000       0.46172000       0.47898190
    80  C          0.24956000       0.53828000       0.52101810
    81  H          0.70409500       0.38197700       0.39784400
    82  H          0.29590500       0.61802300       0.60215600
    83  C          0.74894000       0.44292000       0.59032000
    84  C          0.25106000       0.55708000       0.40968000
    85  H          0.70068700       0.35034300       0.58345400
    86  H          0.29931300       0.64965700       0.41654600
