data_IVUQOF01
_symmetry_space_group_name_H-M    'P1'
_symmetry_Int_Tables_number       1
loop_
_symmetry_equiv_pos_site_id
_symmetry_equiv_pos_as_xyz
1 x,y,z
_cell_length_a                   6.69894
_cell_length_b                   27.386719
_cell_length_c                   15.290111
_cell_angle_alpha                90.0
_cell_angle_beta                 90.3193
_cell_angle_gamma                90.0
loop_
_atom_site_label
_atom_site_type_symbol
_atom_site_fract_x
_atom_site_fract_y
_atom_site_fract_z
     1  F          0.69148000       0.09602500       0.17273100
     2  F          0.80852000       0.59602500       0.32726900
     3  F          0.30852000       0.90397500       0.82726900
     4  F          0.19148000       0.40397500       0.67273100
     5  F          0.19323000       0.98169500       0.11917120
     6  F          0.30677000       0.48169500       0.38082880
     7  F          0.80677000       0.01830500       0.88082880
     8  F          0.69323000       0.51830500       0.61917120
     9  O          0.02072000       0.20264500       0.02901100
    10  O          0.47928000       0.70264500       0.47098900
    11  O         -0.02072000       0.79735500       0.97098900
    12  O          0.52072000       0.29735500       0.52901100
    13  N          0.64008000       0.16475700       0.96937890
    14  N          0.85992000       0.66475700       0.53062110
    15  N          0.35992000       0.83524300       0.03062110
    16  N          0.14008000       0.33524300       0.46937890
    17  N          0.12302000       0.19658600       0.21239100
    18  N          0.37698000       0.69658600       0.28760900
    19  N          0.87698000       0.80341400       0.78760900
    20  N          0.62302000       0.30341400       0.71239100
    21  N          0.58467000       0.16144700       0.82865890
    22  N          0.91533000       0.66144700       0.67134110
    23  N          0.41533000       0.83855300       0.17134110
    24  N          0.08467000       0.33855300       0.32865890
    25  N          0.18883000       0.15628700       0.25670110
    26  N          0.31117000       0.65628700       0.24329890
    27  N          0.81117000       0.84371300       0.74329890
    28  N          0.68883000       0.34371300       0.75670110
    29  N          0.43533000       0.21212700       0.24307130
    30  N          0.06467000       0.71212700       0.25692870
    31  N          0.56467000       0.78787300       0.75692870
    32  N          0.93533000       0.28787300       0.74307130
    33  N          0.62277000       0.11625600       0.95129880
    34  N          0.87723000       0.61625600       0.54870120
    35  N          0.37723000       0.88374400       0.04870120
    36  N          0.12277000       0.38374400       0.45129880
    37  C          0.15803000       0.10849900       0.06014140
    38  C          0.34197000       0.60849900       0.43985860
    39  C          0.84197000       0.89150100       0.93985860
    40  C          0.65803000       0.39150100       0.56014140
    41  C          0.90057000       0.17460700       0.08691130
    42  C          0.59943000       0.67460700       0.41308870
    43  C          0.09943000       0.82539300       0.91308870
    44  C          0.40057000       0.32539300       0.58691130
    45  C          0.92067000       0.19927900       0.17731150
    46  C          0.57933000       0.69927900       0.32268850
    47  C          0.07933000       0.80072100       0.82268850
    48  C          0.42067000       0.30072100       0.67731150
    49  C          0.97207000       0.12177700       0.09193130
    50  C          0.52793000       0.62177700       0.40806870
    51  C          0.02793000       0.87822300       0.90806870
    52  C          0.47207000       0.37822300       0.59193130
    53  C          0.59017000       0.11666900       0.86637840
    54  C          0.90983000       0.61666900       0.63362160
    55  C          0.40983000       0.88333100       0.13362160
    56  C          0.09017000       0.38333100       0.36637840
    57  C          0.37544000       0.16785100       0.27306150
    58  C          0.12456000       0.66785100       0.22693850
    59  C          0.62456000       0.83214900       0.72693850
    60  C          0.87544000       0.33214900       0.77306150
    61  C          0.27123000       0.22863900       0.20512160
    62  C          0.22877000       0.72863900       0.29487840
    63  C          0.72877000       0.77136100       0.79487840
    64  C          0.77123000       0.27136100       0.70512160
    65  C          0.61707000       0.19065100       0.89642850
    66  C          0.88293000       0.69065100       0.60357150
    67  C          0.38293000       0.80934900       0.10357150
    68  C          0.11707000       0.30934900       0.39642850
    69  C          0.68067000       0.18133100       0.05897140
    70  C          0.81933000       0.68133100       0.44102860
    71  C          0.31933000       0.81866900       0.94102860
    72  C          0.18067000       0.31866900       0.55897140
    73  C          0.86997000       0.08532900       0.13507150
    74  C          0.63003000       0.58532900       0.36492850
    75  C          0.13003000       0.91467100       0.86492850
    76  C          0.36997000       0.41467100       0.63507150
    77  C          0.93875000       0.03829100       0.14479190
    78  C          0.56125000       0.53829100       0.35520810
    79  C          0.06125000       0.96170900       0.85520810
    80  C          0.43875000       0.46170900       0.64479190
    81  C          0.23454000       0.06203900       0.06871160
    82  C          0.26546000       0.56203900       0.43128840
    83  C          0.76546000       0.93796100       0.93128840
    84  C          0.73454000       0.43796100       0.56871160
    85  C          0.12104000       0.02792900       0.11049180
    86  C          0.37896000       0.52792900       0.38950820
    87  C          0.87896000       0.97207100       0.88950820
    88  C          0.62104000       0.47207100       0.61049180
    89  H          0.04040000       0.18781000       0.97688200
    90  H          0.45960000       0.68781000       0.52311800
    91  H          0.95960000       0.81219000       0.02311800
    92  H          0.54040000       0.31219000       0.47688200
    93  H          0.23630000       0.13197000       0.03311300
    94  H          0.26370000       0.63197000       0.46688700
    95  H          0.76370000       0.86803000       0.96688700
    96  H          0.73630000       0.36803000       0.53311300
    97  H          0.82870000       0.18267000       0.21941400
    98  H          0.67130000       0.68267000       0.28058600
    99  H          0.17130000       0.81733000       0.78058600
   100  H          0.32870000       0.31733000       0.71941400
   101  H          0.88570000       0.23448000       0.17111300
   102  H          0.61430000       0.73448000       0.32888700
   103  H          0.11430000       0.76552000       0.82888700
   104  H          0.38570000       0.26552000       0.67111300
   105  H          0.57570000       0.08708000       0.83518600
   106  H          0.92430000       0.58708000       0.66481400
   107  H          0.42430000       0.91292000       0.16481400
   108  H          0.07570000       0.41292000       0.33518600
   109  H          0.45930000       0.14577000       0.30361300
   110  H          0.04070000       0.64577000       0.19638700
   111  H          0.54070000       0.85423000       0.69638700
   112  H          0.95930000       0.35423000       0.80361300
   113  H          0.25330000       0.25979000       0.17611500
   114  H          0.24670000       0.75979000       0.32388500
   115  H          0.74670000       0.74021000       0.82388500
   116  H          0.75330000       0.24021000       0.67611500
   117  H          0.62170000       0.22468000       0.89608700
   118  H          0.87830000       0.72468000       0.60391300
   119  H          0.37830000       0.77532000       0.10391300
   120  H          0.12170000       0.27532000       0.39608700
   121  H          0.59070000       0.16317000       0.09641400
   122  H          0.90930000       0.66317000       0.40358600
   123  H          0.40930000       0.83683000       0.90358600
   124  H          0.09070000       0.33683000       0.59641400
   125  H          0.64870000       0.21608000       0.05891200
   126  H          0.85130000       0.71608000       0.44108800
   127  H          0.35130000       0.78392000       0.94108800
   128  H          0.14870000       0.28392000       0.55891200
   129  H          0.86160000       0.01679000       0.17251700
   130  H          0.63840000       0.51679000       0.32748300
   131  H          0.13840000       0.98321000       0.82748300
   132  H          0.36160000       0.48321000       0.67251700
   133  H          0.36330000       0.05378000       0.04771400
   134  H          0.13670000       0.55378000       0.45228600
   135  H          0.63670000       0.94622000       0.95228600
   136  H          0.86330000       0.44622000       0.54771400
   137  F          0.68638000       0.44588500       0.05556100
   138  F          0.81362000       0.94588500       0.44443900
   139  F          0.31362000       0.55411500       0.94443900
   140  F          0.18638000       0.05411500       0.55556100
   141  F          0.19643000       0.54991500       0.15157120
   142  F          0.30357000       0.04991500       0.34842880
   143  F          0.80357000       0.45008500       0.84842880
   144  F          0.69643000       0.95008500       0.65157120
   145  O          0.01622000       0.32312500       0.15109100
   146  O          0.48378000       0.82312500       0.34890900
   147  O         -0.01622000       0.67687500       0.84890900
   148  O          0.51622000       0.17687500       0.65109100
   149  N          0.64238000       0.35562600       0.22622110
   150  N          0.85762000       0.85562600       0.27377890
   151  N          0.35762000       0.64437400       0.77377890
   152  N          0.14238000       0.14437400       0.72622110
   153  N          0.11392000       0.34063700       0.97666900
   154  N          0.38608000       0.84063700       0.52333100
   155  N          0.88608000       0.65936300       0.02333100
   156  N          0.61392000       0.15936300       0.47666900
   157  N          0.62567000       0.40073600       0.26292120
   158  N          0.87433000       0.90073600       0.23707880
   159  N          0.37433000       0.59926400       0.73707880
   160  N          0.12567000       0.09926400       0.76292120
   161  N          0.20643000       0.37971700       0.93916880
   162  N          0.29357000       0.87971700       0.56083120
   163  N          0.79357000       0.62028300       0.06083120
   164  N          0.70643000       0.12028300       0.43916880
   165  N          0.58738000       0.34142700       0.36473110
   166  N          0.91262000       0.84142700       0.13526890
   167  N          0.41262000       0.65857300       0.63526890
   168  N          0.08738000       0.15857300       0.86473110
   169  N          0.41173000       0.31392800       0.94188870
   170  N          0.08827000       0.81392800       0.55811130
   171  N          0.58827000       0.68607200       0.05811130
   172  N          0.91173000       0.18607200       0.44188870
   173  C          0.97357000       0.40980700       0.11969130
   174  C          0.52643000       0.90980700       0.38030870
   175  C          0.02643000       0.59019300       0.88030870
   176  C          0.47357000       0.09019300       0.61969130
   177  C          0.67737000       0.34984100       0.13224140
   178  C          0.82263000       0.84984100       0.36775860
   179  C          0.32263000       0.65015900       0.86775860
   180  C          0.17737000       0.15015900       0.63224140
   181  C          0.89667000       0.35784800       0.10587130
   182  C          0.60333000       0.85784800       0.39412870
   183  C          0.10333000       0.64215200       0.89412870
   184  C          0.39667000       0.14215200       0.60587130
   185  C          0.59347000       0.38953900       0.34572160
   186  C          0.90653000       0.88953900       0.15427840
   187  C          0.40653000       0.61046100       0.65427840
   188  C          0.09347000       0.11046100       0.84572160
   189  C          0.61937000       0.32109900       0.28709150
   190  C          0.88063000       0.82109900       0.21290850
   191  C          0.38063000       0.67890100       0.71290850
   192  C          0.11937000       0.17890100       0.78709150
   193  C          0.23944000       0.46504900       0.16483170
   194  C          0.26056000       0.96504900       0.33516830
   195  C          0.76056000       0.53495100       0.83516830
   196  C          0.73944000       0.03495100       0.66483170
   197  C          0.38264000       0.36136100       0.91990840
   198  C          0.11736000       0.86136100       0.58009160
   199  C          0.61736000       0.63863900       0.08009160
   200  C          0.88264000       0.13863900       0.41990840
   201  C          0.90997000       0.34328100       0.00810140
   202  C          0.59003000       0.84328100       0.49189860
   203  C          0.09003000       0.65671900      -0.00810140
   204  C          0.40997000       0.15671900       0.50810140
   205  C          0.16223000       0.41854900       0.15386140
   206  C          0.33777000       0.91854900       0.34613860
   207  C          0.83777000       0.58145100       0.84613860
   208  C          0.66223000       0.08145100       0.65386140
   209  C          0.12345000       0.50381900       0.14121180
   210  C          0.37655000       0.00381900       0.35878820
   211  C          0.87655000       0.49618100       0.85878820
   212  C          0.62345000      -0.00381900       0.64121180
   213  C          0.23844000       0.30276100       0.97706840
   214  C          0.26156000       0.80276100       0.52293160
   215  C          0.76156000       0.69723900       0.02293160
   216  C          0.73844000       0.19723900       0.47706840
   217  C          0.86847000       0.45122900       0.09518150
   218  C          0.63153000       0.95122900       0.40481850
   219  C          0.13153000       0.54877100       0.90481850
   220  C          0.36847000       0.04877100       0.59518150
   221  C          0.93615000       0.49830100       0.10598190
   222  C          0.56385000      -0.00169900       0.39401810
   223  C          0.06385000       0.50169900       0.89401810
   224  C          0.43615000       0.00169900       0.60598190
   225  H          0.02740000       0.33009000       0.20961800
   226  H          0.47260000       0.83009000       0.29038200
   227  H          0.97260000       0.66991000       0.79038200
   228  H          0.52740000       0.16991000       0.70961800
   229  H          0.63970000       0.31508000       0.11891300
   230  H          0.86030000       0.81508000       0.38108700
   231  H          0.36030000       0.68492000       0.88108700
   232  H          0.13970000       0.18492000       0.61891300
   233  H          0.58970000       0.37157000       0.10101400
   234  H          0.91030000       0.87157000       0.39898600
   235  H          0.41030000       0.62843000       0.89898600
   236  H          0.08970000       0.12843000       0.60101400
   237  H          0.57270000       0.41558000       0.38741400
   238  H          0.92730000       0.91558000       0.11258600
   239  H          0.42730000       0.58442000       0.61258600
   240  H          0.07270000       0.08442000       0.88741400
   241  H          0.62170000       0.28718000       0.27661300
   242  H          0.87830000       0.78718000       0.22338700
   243  H          0.37830000       0.71282000       0.72338700
   244  H          0.12170000       0.21282000       0.77661300
   245  H          0.37140000       0.46918000       0.18721500
   246  H          0.12860000       0.96918000       0.31278500
   247  H          0.62860000       0.53082000       0.81278500
   248  H          0.87140000       0.03082000       0.68721500
   249  H          0.47740000       0.37988000       0.89108500
   250  H          0.02260000       0.87988000       0.60891500
   251  H          0.52260000       0.62012000       0.10891500
   252  H          0.97740000       0.12012000       0.39108500
   253  H          0.84770000       0.30949000      -0.00191400
   254  H          0.65230000       0.80949000       0.50191400
   255  H          0.15230000       0.69051000       0.00191400
   256  H          0.34770000       0.19051000       0.49808600
   257  H          0.83870000       0.36697000       0.97128600
   258  H          0.66130000       0.86697000       0.52871400
   259  H          0.16130000       0.63303000       0.02871400
   260  H          0.33870000       0.13303000       0.47128600
   261  H          0.24230000       0.39118000       0.16971300
   262  H          0.25770000       0.89118000       0.33028700
   263  H          0.75770000       0.60882000       0.83028700
   264  H          0.74230000       0.10882000       0.66971300
   265  H          0.19730000       0.27208000      -0.00111400
   266  H          0.30270000       0.77208000       0.50111400
   267  H          0.80270000       0.72792000       0.00111400
   268  H          0.69730000       0.22792000       0.49888600
   269  H          0.85860000       0.52521100       0.08831800
   270  H          0.64140000       0.02521100       0.41168200
   271  H          0.14140000       0.47478900       0.91168200
   272  H          0.35860000       0.97478900       0.58831800
