data_IVUQOF02
_symmetry_space_group_name_H-M    'P1'
_symmetry_Int_Tables_number       1
loop_
_symmetry_equiv_pos_site_id
_symmetry_equiv_pos_as_xyz
1 x,y,z
_cell_length_a                   12.92829
_cell_length_b                   6.02415
_cell_length_c                   34.8343
_cell_angle_alpha                90.0
_cell_angle_beta                 90.0
_cell_angle_gamma                90.0
loop_
_atom_site_label
_atom_site_type_symbol
_atom_site_fract_x
_atom_site_fract_y
_atom_site_fract_z
     1  F          0.33187160       0.16114000       0.40981600
     2  F          0.16812840       0.83886000       0.90981600
     3  F          0.83187160       0.33886000       0.59018400
     4  F          0.66812840       0.66114000       0.09018400
     5  F          0.66812840       0.83886000       0.59018400
     6  F          0.83187160       0.16114000       0.09018400
     7  F          0.16812840       0.66114000       0.40981600
     8  F          0.33187160       0.33886000       0.90981600
     9  N          0.62632000       0.13715000       0.40684800
    10  N          0.87368000       0.86285000       0.90684800
    11  N          0.12632000       0.36285000       0.59315200
    12  N          0.37368000       0.63715000       0.09315200
    13  N          0.37368000       0.86285000       0.59315200
    14  N          0.12632000       0.13715000       0.09315200
    15  N          0.87368000       0.63715000       0.40684800
    16  N          0.62632000       0.36285000       0.90684800
    17  O          0.53062170       0.57074000       0.34199700
    18  O          0.96937830       0.42926000       0.84199700
    19  O          0.03062170       0.92926000       0.65800300
    20  O          0.46937830       0.07074000       0.15800300
    21  O          0.46937830       0.42926000       0.65800300
    22  O          0.03062170       0.57074000       0.15800300
    23  O          0.96937830       0.07074000       0.34199700
    24  O          0.53062170       0.92926000       0.84199700
    25  H          0.58390000       0.57980000       0.35460000
    26  H          0.91610000       0.42020000       0.85460000
    27  H          0.08390000       0.92020000       0.64540000
    28  H          0.41610000       0.07980000       0.14540000
    29  H          0.41610000       0.42020000       0.64540000
    30  H          0.08390000       0.57980000       0.14540000
    31  H          0.91610000       0.07980000       0.35460000
    32  H          0.58390000       0.92020000       0.85460000
    33  F          0.36775180       0.65425000       0.51268600
    34  F          0.13224820       0.34575000       0.01268600
    35  F          0.86775180       0.84575000       0.48731400
    36  F          0.63224820       0.15425000       0.98731400
    37  F          0.63224820       0.34575000       0.48731400
    38  F          0.86775180       0.65425000       0.98731400
    39  F          0.13224820       0.15425000       0.51268600
    40  F          0.36775180       0.84575000       0.01268600
    41  N          0.77552000       0.12424000       0.37281800
    42  N          0.72448000       0.87576000       0.87281800
    43  N          0.27552000       0.37576000       0.62718200
    44  N          0.22448000       0.62424000       0.12718200
    45  N          0.22448000       0.87576000       0.62718200
    46  N          0.27552000       0.12424000       0.12718200
    47  N          0.72448000       0.62424000       0.37281800
    48  N          0.77552000       0.37576000       0.87281800
    49  N          0.60772000       0.14984000       0.36845800
    50  N          0.89228000       0.85016000       0.86845800
    51  N          0.10772000       0.35016000       0.63154200
    52  N          0.39228000       0.64984000       0.13154200
    53  N          0.39228000       0.85016000       0.63154200
    54  N          0.10772000       0.14984000       0.13154200
    55  N          0.89228000       0.64984000       0.36845800
    56  N          0.60772000       0.35016000       0.86845800
    57  N          0.36752000       0.41985000       0.29681800
    58  N          0.13248000       0.58015000       0.79681800
    59  N          0.86752000       0.08015000       0.70318200
    60  N          0.63248000       0.91985000       0.20318200
    61  N          0.63248000       0.58015000       0.70318200
    62  N          0.86752000       0.41985000       0.20318200
    63  N          0.13248000       0.91985000       0.29681800
    64  N          0.36752000       0.08015000       0.79681800
    65  C          0.69652000       0.14235000       0.34900100
    66  C          0.80348000       0.85765000       0.84900100
    67  C          0.19652000       0.35765000       0.65099900
    68  C          0.30348000       0.64235000       0.15099900
    69  C          0.30348000       0.85765000       0.65099900
    70  C          0.19652000       0.14235000       0.15099900
    71  C          0.80348000       0.64235000       0.34900100
    72  C          0.69652000       0.35765000       0.84900100
    73  H          0.70200000       0.14880000       0.32240000
    74  H          0.79800000       0.85120000       0.82240000
    75  H          0.20200000       0.35120000       0.67760000
    76  H          0.29800000       0.64880000       0.17760000
    77  H          0.29800000       0.85120000       0.67760000
    78  H          0.20200000       0.14880000       0.17760000
    79  H          0.79800000       0.64880000       0.32240000
    80  H          0.70200000       0.35120000       0.82240000
    81  C          0.72862000       0.12186000       0.40764100
    82  C          0.77138000       0.87814000       0.90764100
    83  C          0.22862000       0.37814000       0.59235900
    84  C          0.27138000       0.62186000       0.09235900
    85  C          0.27138000       0.87814000       0.59235900
    86  C          0.22862000       0.12186000       0.09235900
    87  C          0.77138000       0.62186000       0.40764100
    88  C          0.72862000       0.37814000       0.90764100
    89  C          0.46282000       0.41655000       0.35950100
    90  C          0.03718000       0.58345000       0.85950100
    91  C          0.96282000       0.08345000       0.64049900
    92  C          0.53718000       0.91655000       0.14049900
    93  C          0.53718000       0.58345000       0.64049900
    94  C          0.96282000       0.41655000       0.14049900
    95  C          0.03718000       0.91655000       0.35950100
    96  C          0.46282000       0.08345000       0.85950100
    97  N          0.35492000       0.21616000       0.27994900
    98  N          0.14508000       0.78384000       0.77994900
    99  N          0.85492000       0.28384000       0.72005100
   100  N          0.64508000       0.71616000       0.22005100
   101  N          0.64508000       0.78384000       0.72005100
   102  N          0.85492000       0.21616000       0.22005100
   103  N          0.14508000       0.71616000       0.27994900
   104  N          0.35492000       0.28384000       0.77994900
   105  C          0.48283000       0.66256000       0.41832100
   106  C          0.01717000       0.33744000       0.91832100
   107  C          0.98283000       0.83744000       0.58167900
   108  C          0.51717000       0.16256000       0.08167900
   109  C          0.51717000       0.33744000       0.58167900
   110  C          0.98283000       0.66256000       0.08167900
   111  C          0.01717000       0.16256000       0.41832100
   112  C          0.48283000       0.83744000       0.91832100
   113  C          0.44232000       0.47206000       0.40151100
   114  C          0.05768000       0.52794000       0.90151100
   115  C          0.94232000       0.02794000       0.59848900
   116  C          0.55768000       0.97206000       0.09848900
   117  C          0.55768000       0.52794000       0.59848900
   118  C          0.94232000       0.47206000       0.09848900
   119  C          0.05768000       0.97206000       0.40151100
   120  C          0.44232000       0.02794000       0.90151100
   121  C          0.35943000       0.44727000       0.33796100
   122  C          0.14057000       0.55273000       0.83796100
   123  C          0.85943000       0.05273000       0.66203900
   124  C          0.64057000       0.94727000       0.16203900
   125  C          0.64057000       0.55273000       0.66203900
   126  C          0.85943000       0.44727000       0.16203900
   127  C          0.14057000       0.94727000       0.33796100
   128  C          0.35943000       0.05273000       0.83796100
   129  C          0.50322000       0.17976000       0.35310100
   130  C         -0.00322000       0.82024000       0.85310100
   131  C          0.00322000       0.32024000       0.64689900
   132  C          0.49678000       0.67976000       0.14689900
   133  C          0.49678000       0.82024000       0.64689900
   134  C          0.00322000       0.17976000       0.14689900
   135  C         -0.00322000       0.67976000       0.35310100
   136  C          0.50322000       0.32024000       0.85310100
   137  C          0.39413000       0.59367000       0.47643100
   138  C          0.10587000       0.40633000       0.97643100
   139  C          0.89413000       0.90633000       0.52356900
   140  C          0.60587000       0.09367000       0.02356900
   141  C          0.60587000       0.40633000       0.52356900
   142  C          0.89413000       0.59367000       0.02356900
   143  C          0.10587000       0.09367000       0.47643100
   144  C          0.39413000       0.90633000       0.97643100
   145  C          0.35213000       0.40077000       0.46187110
   146  C          0.14787000       0.59923000       0.96187110
   147  C          0.85213000       0.09923000       0.53812890
   148  C          0.64787000       0.90077000       0.03812890
   149  C          0.64787000       0.59923000       0.53812890
   150  C          0.85213000       0.40077000       0.03812890
   151  C          0.14787000       0.90077000       0.46187110
   152  C          0.35213000       0.09923000       0.96187110
   153  N          0.38902000       0.47997000       0.23551900
   154  N          0.11098000       0.52003000       0.73551900
   155  N          0.88902000       0.02003000       0.76448100
   156  N          0.61098000      -0.02003000       0.26448100
   157  N          0.61098000       0.52003000       0.76448100
   158  N          0.88902000       0.47997000       0.26448100
   159  N          0.11098000      -0.02003000       0.23551900
   160  N          0.38902000       0.02003000       0.73551900
   161  C          0.37663000       0.34776000       0.42467100
   162  C          0.12337000       0.65224000       0.92467100
   163  C          0.87663000       0.15224000       0.57532900
   164  C          0.62337000       0.84776000       0.07532900
   165  C          0.62337000       0.65224000       0.57532900
   166  C          0.87663000       0.34776000       0.07532900
   167  C          0.12337000       0.84776000       0.42467100
   168  C          0.37663000       0.15224000       0.92467100
   169  C          0.45973000       0.72497000       0.45551120
   170  C          0.04027000       0.27503000       0.95551120
   171  C          0.95973000       0.77503000       0.54448880
   172  C          0.54027000       0.22497000       0.04448880
   173  C          0.54027000       0.27503000       0.54448880
   174  C          0.95973000       0.72497000       0.04448880
   175  C          0.04027000       0.22497000       0.45551120
   176  C          0.45973000       0.77503000       0.95551120
   177  C          0.38733000       0.57098000       0.27004110
   178  C          0.11267000       0.42902000       0.77004110
   179  C          0.88733000       0.92902000       0.72995890
   180  C          0.61267000       0.07098000       0.22995890
   181  C          0.61267000       0.42902000       0.72995890
   182  C          0.88733000       0.57098000       0.22995890
   183  C          0.11267000       0.07098000       0.27004110
   184  C          0.38733000       0.92902000       0.77004110
   185  C          0.36893000       0.26389000       0.24340110
   186  C          0.13107000       0.73611000       0.74340110
   187  C          0.86893000       0.23611000       0.75659890
   188  C          0.63107000       0.76389000       0.25659890
   189  C          0.63107000       0.73611000       0.75659890
   190  C          0.86893000       0.26389000       0.25659890
   191  C          0.13107000       0.76389000       0.24340110
   192  C          0.36893000       0.23611000       0.74340110
   193  H          0.40030000       0.72380000       0.27801200
   194  H          0.09970000       0.27620000       0.77801200
   195  H          0.90030000       0.77620000       0.72198800
   196  H          0.59970000       0.22380000       0.22198800
   197  H          0.59970000       0.27620000       0.72198800
   198  H          0.90030000       0.72380000       0.22198800
   199  H          0.09970000       0.22380000       0.27801200
   200  H          0.40030000       0.77620000       0.77801200
   201  H          0.31430000       0.34260000       0.34651000
   202  H          0.18570000       0.65740000       0.84651000
   203  H          0.81430000       0.15740000       0.65349000
   204  H          0.68570000       0.84260000       0.15349000
   205  H          0.68570000       0.65740000       0.65349000
   206  H          0.81430000       0.34260000       0.15349000
   207  H          0.18570000       0.84260000       0.34651000
   208  H          0.31430000       0.15740000       0.84651000
   209  H          0.45930000       0.07370000       0.36551100
   210  H          0.04070000       0.92630000       0.86551100
   211  H          0.95930000       0.42630000       0.63448900
   212  H          0.54070000       0.57370000       0.13448900
   213  H          0.54070000       0.92630000       0.63448900
   214  H          0.95930000       0.07370000       0.13448900
   215  H          0.04070000       0.57370000       0.36551100
   216  H          0.45930000       0.42630000       0.86551100
   217  H          0.36930000       0.16170000       0.22231100
   218  H          0.13070000       0.83830000       0.72231100
   219  H          0.86930000       0.33830000       0.77768900
   220  H          0.63070000       0.66170000       0.27768900
   221  H          0.63070000       0.83830000       0.77768900
   222  H          0.86930000       0.16170000       0.27768900
   223  H          0.13070000       0.66170000       0.22231100
   224  H          0.36930000       0.33830000       0.72231100
   225  H          0.33430000       0.60760000       0.34241000
   226  H          0.16570000       0.39240000       0.84241000
   227  H          0.83430000       0.89240000       0.65759000
   228  H          0.66570000       0.10760000       0.15759000
   229  H          0.66570000       0.39240000       0.65759000
   230  H          0.83430000       0.60760000       0.15759000
   231  H          0.16570000       0.10760000       0.34241000
   232  H          0.33430000       0.89240000       0.84241000
   233  H          0.52130000       0.74670000       0.40441100
   234  H          0.97870000       0.25330000       0.90441100
   235  H          0.02130000       0.75330000       0.59558900
   236  H          0.47870000       0.24670000       0.09558900
   237  H          0.47870000       0.25330000       0.59558900
   238  H          0.02130000       0.74670000       0.09558900
   239  H          0.97870000       0.24670000       0.40441100
   240  H          0.52130000       0.75330000       0.90441100
   241  H          0.48230000       0.85370000       0.46551100
   242  H          0.01770000       0.14630000       0.96551100
   243  H          0.98230000       0.64630000       0.53448900
   244  H          0.51770000       0.35370000       0.03448900
   245  H          0.51770000       0.14630000       0.53448900
   246  H          0.98230000       0.85370000       0.03448900
   247  H          0.01770000       0.35370000       0.46551100
   248  H          0.48230000       0.64630000       0.96551100
   249  H          0.76230000       0.12160000       0.43211000
   250  H          0.73770000       0.87840000       0.93211000
   251  H          0.26230000       0.37840000       0.56789000
   252  H          0.23770000       0.62160000       0.06789000
   253  H          0.23770000       0.87840000       0.56789000
   254  H          0.26230000       0.12160000       0.06789000
   255  H          0.73770000       0.62160000       0.43211000
   256  H          0.76230000       0.37840000       0.93211000
   257  H          0.31130000       0.30080000       0.47731300
   258  H          0.18870000       0.69920000       0.97731300
   259  H          0.81130000       0.19920000       0.52268700
   260  H          0.68870000       0.80080000       0.02268700
   261  H          0.68870000       0.69920000       0.52268700
   262  H          0.81130000       0.30080000       0.02268700
   263  H          0.18870000       0.80080000       0.47731300
   264  H          0.31130000       0.19920000       0.97731300
   265  H          0.50720000       0.16350000       0.32569000
   266  H         -0.00720000       0.83650000       0.82569000
   267  H          0.00720000       0.33650000       0.67431000
   268  H          0.49280000       0.66350000       0.17431000
   269  H          0.49280000       0.83650000       0.67431000
   270  H          0.00720000       0.16350000       0.17431000
   271  H         -0.00720000       0.66350000       0.32569000
   272  H          0.50720000       0.33650000       0.82569000
