data_IVUQOF
_symmetry_space_group_name_H-M    'P1'
_symmetry_Int_Tables_number       1
loop_
_symmetry_equiv_pos_site_id
_symmetry_equiv_pos_as_xyz
1 x,y,z
_cell_length_a                   7.499201
_cell_length_b                   7.786901
_cell_length_c                   11.98172
_cell_angle_alpha                84.94701
_cell_angle_beta                 84.62501
_cell_angle_gamma                75.89401
loop_
_atom_site_label
_atom_site_type_symbol
_atom_site_fract_x
_atom_site_fract_y
_atom_site_fract_z
     1  C          0.18167140       0.46477140       0.19433900
     2  C          0.81832860       0.53522860       0.80566100
     3  C          0.24174150       0.60006160       0.12984100
     4  C          0.75825850       0.39993840       0.87015900
     5  C          0.13062170       0.73195160       0.06627100
     6  C          0.86937830       0.26804840       0.93372900
     7  H          0.17690000       0.82280000       0.02390000
     8  H          0.82310000       0.17720000       0.97610000
     9  C          0.94861830       0.72519150       0.06728100
    10  C          0.05138170       0.27480850       0.93271900
    11  C          0.87899850       0.59484160       0.12621100
    12  C          0.12100150       0.40515840       0.87378900
    13  H          0.75310000       0.59320000       0.12420000
    14  H          0.24690000       0.40680000       0.87580000
    15  C         -0.00320150       0.46475150       0.18913900
    16  C          0.00320150       0.53524850       0.81086100
    17  H          0.94990000       0.37290000       0.22990000
    18  H          0.05010000       0.62710000       0.77010000
    19  F          0.42311100       0.60347110       0.12609700
    20  F          0.57688900       0.39652890       0.87390300
    21  F          0.83491880       0.85425100       0.00592700
    22  F          0.16508120       0.14574900      -0.00592700
    23  C          0.31019140       0.31883140       0.26286900
    24  C          0.68980860       0.68116860       0.73713100
    25  O          0.21212110       0.20644100       0.32869700
    26  O          0.78787890       0.79355900       0.67130300
    27  C          0.42510140       0.39021150       0.34070900
    28  C          0.57489860       0.60978850       0.65929100
    29  H          0.49320000       0.28980000       0.38840000
    30  H          0.50680000       0.71020000       0.61160000
    31  H          0.51700000       0.44250000       0.29390000
    32  H          0.48300000       0.55750000       0.70610000
    33  N          0.31359120       0.52336120       0.41273700
    34  N          0.68640880       0.47663880       0.58726300
    35  N          0.30026130       0.69990120       0.38504800
    36  N          0.69973870       0.30009880       0.61495200
    37  C          0.18817160       0.77474150       0.46741100
    38  C          0.81182840       0.22525850       0.53258900
    39  H          0.15190000       0.89980000       0.47190000
    40  H          0.84810000       0.10020000       0.52810000
    41  N          0.12788130       0.66061130       0.54558800
    42  N          0.87211870       0.33938870       0.45441200
    43  C          0.21133150       0.50328150       0.50826900
    44  C          0.78866850       0.49671850       0.49173100
    45  H          0.20000000       0.39240000       0.54430000
    46  H          0.80000000       0.60760000       0.45570000
    47  C          0.44195150       0.19815150       0.17945900
    48  C          0.55804850       0.80184850       0.82054100
    49  H          0.37210000       0.12550000       0.14590000
    50  H          0.62790000       0.87450000       0.85410000
    51  H          0.48760000       0.27360000       0.11790000
    52  H          0.51240000       0.72640000       0.88210000
    53  N          0.59889120       0.08078120       0.23085800
    54  N          0.40110880       0.91921880       0.76914200
    55  N          0.76645130       0.12149130       0.21767800
    56  N          0.23354870       0.87850870       0.78232200
    57  C          0.86646160      -0.00428150       0.28228100
    58  C          0.13353840       0.00428150       0.71771900
    59  H         -0.00680000      -0.01220000       0.29000000
    60  H          0.00680000       0.01220000       0.71000000
    61  N          0.77577150       0.87868860       0.33681900
    62  N          0.22422850       0.12131140       0.66318100
    63  C          0.60829170       0.93698850       0.30183110
    64  C          0.39170830       0.06301150       0.69816890
    65  H          0.50800000       0.88380000       0.32410000
    66  H          0.49200000       0.11620000       0.67590000
    67  H          0.10200000       0.27380000       0.36370000
    68  H          0.89800000       0.72620000       0.63630000
