data_IWUKAM01
_symmetry_space_group_name_H-M    'P1'
_symmetry_Int_Tables_number       1
loop_
_symmetry_equiv_pos_site_id
_symmetry_equiv_pos_as_xyz
1 x,y,z
_cell_length_a                   7.184001
_cell_length_b                   12.507901
_cell_length_c                   19.952701
_cell_angle_alpha                90.0
_cell_angle_beta                 90.0
_cell_angle_gamma                90.0
loop_
_atom_site_label
_atom_site_type_symbol
_atom_site_fract_x
_atom_site_fract_y
_atom_site_fract_z
     1  N          0.64690140       0.33516700       0.49998400
     2  N          0.35309860       0.66483300      -0.00001600
     3  N          0.14690140       0.16483300       0.49998400
     4  N          0.85309860       0.83516700      -0.00001600
     5  N          0.76115130       0.35089700       0.61216500
     6  N          0.23884870       0.64910300       0.11216500
     7  N          0.26115130       0.14910300       0.61216500
     8  N          0.73884870       0.85089700       0.11216500
     9  N          0.70433130       0.50706700       0.54716500
    10  N          0.29566870       0.49293300       0.04716500
    11  N          0.20433130      -0.00706700       0.54716500
    12  N          0.79566870       0.00706700       0.04716500
    13  N          0.70786130       0.18485700       0.56534400
    14  N          0.29213870       0.81514300       0.06534400
    15  N          0.20786130       0.31514300       0.56534400
    16  N          0.79213870       0.68485700       0.06534400
    17  N          0.65449130       0.12198800       0.51162500
    18  N          0.34550870       0.87801200       0.01162500
    19  N          0.15449130       0.37801200       0.51162500
    20  N          0.84550870       0.62198800       0.01162500
    21  N          0.58836130       0.49074700       0.43969400
    22  N          0.41163870       0.50925300       0.93969400
    23  N          0.08836130       0.00925300       0.43969400
    24  N          0.91163870      -0.00925300       0.93969400
    25  N          0.60689130       0.60069700       0.43401500
    26  N          0.39310870       0.39930300       0.93401500
    27  N          0.10689130       0.89930300       0.43401500
    28  N          0.89310870       0.10069700       0.93401500
    29  N          0.81077130       0.52146700       0.65568400
    30  N          0.18922870       0.47853300       0.15568400
    31  N          0.31077130       0.97853300       0.65568400
    32  N          0.68922870       0.02146700       0.15568400
    33  N          0.89652120       0.47659700       0.71095500
    34  N          0.10347880       0.52340300       0.21095500
    35  N          0.39652120       0.02340300       0.71095500
    36  N          0.60347880       0.97659700       0.21095500
    37  C          0.70516150       0.29617800       0.55866600
    38  C          0.29483850       0.70382200       0.05866600
    39  C          0.20516150       0.20382200       0.55866600
    40  C          0.79483850       0.79617800       0.05866600
    41  C          0.75663140       0.45598900       0.60231500
    42  C          0.24336860       0.54401100       0.10231500
    43  C          0.25663140       0.04401100       0.60231500
    44  C          0.74336860       0.95598900       0.10231500
    45  C          0.64950150       0.44148800       0.49846500
    46  C          0.35049850       0.55851200      -0.00153500
    47  C          0.14950150       0.05851200       0.49846500
    48  C          0.85049850       0.94148800      -0.00153500
    49  C          0.82309170       0.16382900       0.68709500
    50  C          0.17690830       0.83617100       0.18709500
    51  C          0.32309170       0.33617100       0.68709500
    52  C          0.67690830       0.66382900       0.18709500
    53  H          0.85860000       0.10330000       0.71550000
    54  H          0.14140000       0.89670000       0.21550000
    55  H          0.35860000       0.39670000       0.71550000
    56  H          0.64140000       0.60330000       0.21550000
    57  H          0.71980000       0.20260000       0.70800000
    58  H          0.28020000       0.79740000       0.20800000
    59  H          0.21980000       0.29740000       0.70800000
    60  H          0.78020000       0.70260000       0.20800000
    61  H          0.92970000       0.21190000       0.68180000
    62  H          0.07030000       0.78810000       0.18180000
    63  H          0.42970000       0.28810000       0.68180000
    64  H          0.57030000       0.71190000       0.18180000
    65  C          0.76404150       0.12363900       0.62003600
    66  C          0.23595850       0.87636100       0.12003600
    67  C          0.26404150       0.37636100       0.62003600
    68  C          0.73595850       0.62363900       0.12003600
    69  C          0.74711160       0.01995900       0.59952600
    70  C          0.25288840       0.98004100       0.09952600
    71  C          0.24711160       0.48004100       0.59952600
    72  C          0.75288840       0.51995900       0.09952600
    73  H          0.77560000       0.95790000       0.62500000
    74  H          0.22440000       0.04210000       0.12500000
    75  H          0.27560000       0.54210000       0.62500000
    76  H          0.72440000       0.45790000       0.12500000
    77  C          0.67861140       0.02291900       0.53266600
    78  C          0.32138860       0.97708100       0.03266600
    79  C          0.17861140       0.47708100       0.53266600
    80  C          0.82138860       0.52291900       0.03266600
    81  C          0.63441170       0.92992100       0.48831600
    82  C          0.36558830       0.07007900       0.98831600
    83  C          0.13441170       0.57007900       0.48831600
    84  C          0.86558830       0.42992100       0.98831600
    85  H          0.60410000       0.95580000       0.44320000
    86  H          0.39590000       0.04420000       0.94320000
    87  H          0.10410000       0.54420000       0.44320000
    88  H          0.89590000       0.45580000       0.94320000
    89  H          0.52770000       0.89080000       0.50660000
    90  H          0.47230000       0.10920000       0.00660000
    91  H          0.02770000       0.60920000       0.50660000
    92  H          0.97230000       0.39080000       0.00660000
    93  H          0.74240000       0.88220000       0.48600000
    94  H          0.25760000       0.11780000       0.98600000
    95  H          0.24240000       0.61780000       0.48600000
    96  H          0.75760000       0.38220000       0.98600000
    97  C          0.44991160       0.33159900       0.37583600
    98  C          0.55008840       0.66840100       0.87583600
    99  C          0.94991160       0.16840100       0.37583600
   100  C          0.05008840       0.83159900       0.87583600
   101  H          0.38800000       0.32150000       0.33250000
   102  H          0.61200000       0.67850000       0.83250000
   103  H          0.88800000       0.17850000       0.33250000
   104  H          0.11200000       0.82150000       0.83250000
   105  H          0.36690000       0.30820000       0.41190000
   106  H          0.63310000       0.69180000       0.91190000
   107  H          0.86690000       0.19180000       0.41190000
   108  H          0.13310000       0.80820000       0.91190000
   109  H          0.56460000       0.28920000       0.37700000
   110  H          0.43540000       0.71080000       0.87700000
   111  H          0.06460000       0.21080000       0.37700000
   112  H          0.93540000       0.78920000       0.87700000
   113  C          0.49607150       0.44699900       0.38503500
   114  C          0.50392850       0.55300100       0.88503500
   115  C         -0.00392850       0.05300100       0.38503500
   116  C          0.00392850       0.94699900       0.88503500
   117  C          0.45694160       0.53202900       0.34406600
   118  C          0.54305840       0.46797100       0.84406600
   119  C          0.95694160       0.96797100       0.34406600
   120  C          0.04305840       0.03202900       0.84406600
   121  H          0.39470000       0.52950000       0.30210000
   122  H          0.60530000       0.47050000       0.80210000
   123  H          0.89470000       0.97050000       0.30210000
   124  H          0.10530000       0.02950000       0.80210000
   125  C          0.52746150       0.62463900       0.37652600
   126  C          0.47253850       0.37536100       0.87652600
   127  C          0.02746150       0.87536100       0.37652600
   128  C          0.97253850       0.12463900       0.87652600
   129  C          0.51606180       0.73881100       0.35422700
   130  C          0.48393820       0.26118900       0.85422700
   131  C          0.01606180       0.76118900       0.35422700
   132  C         -0.01606180       0.23881100       0.85422700
   133  H          0.63400000       0.77500000       0.36400000
   134  H          0.36600000       0.22500000       0.86400000
   135  H          0.13400000       0.72500000       0.36400000
   136  H          0.86600000       0.27500000       0.86400000
   137  H          0.41470000       0.77480000       0.37820000
   138  H          0.58530000       0.22520000       0.87820000
   139  H          0.91470000       0.72520000       0.37820000
   140  H          0.08530000       0.27480000       0.87820000
   141  H          0.49200000       0.74140000       0.30590000
   142  H          0.50800000       0.25860000       0.80590000
   143  H         -0.00800000       0.75860000       0.30590000
   144  H          0.00800000       0.24140000       0.80590000
   145  C          0.71358170       0.70472900       0.60992600
   146  C          0.28641830       0.29527100       0.10992600
   147  C          0.21358170       0.79527100       0.60992600
   148  C          0.78641830       0.20472900       0.10992600
   149  H          0.71020000       0.77760000       0.62800000
   150  H          0.28980000       0.22240000       0.12800000
   151  H          0.21020000       0.72240000       0.62800000
   152  H          0.78980000       0.27760000       0.12800000
   153  H          0.58640000       0.68050000       0.60070000
   154  H          0.41360000       0.31950000       0.10070000
   155  H          0.08640000       0.81950000       0.60070000
   156  H          0.91360000       0.18050000       0.10070000
   157  H          0.78620000       0.70390000       0.56830000
   158  H          0.21380000       0.29610000       0.06830000
   159  H          0.28620000       0.79610000       0.56830000
   160  H          0.71380000       0.20390000       0.06830000
   161  C          0.80173150       0.63183800       0.65987600
   162  C          0.19826850       0.36816200       0.15987600
   163  C          0.30173150       0.86816200       0.65987600
   164  C          0.69826850       0.13183800       0.15987600
   165  C          0.88424160       0.65728900       0.71970600
   166  C          0.11575840       0.34271100       0.21970600
   167  C          0.38424160       0.84271100       0.71970600
   168  C          0.61575840       0.15728900       0.21970600
   169  H          0.90010000       0.72690000       0.73790000
   170  H          0.09990000       0.27310000       0.23790000
   171  H          0.40010000       0.77310000       0.73790000
   172  H          0.59990000       0.22690000       0.23790000
   173  C          0.94152150       0.55897900       0.74920500
   174  C          0.05847850       0.44102100       0.24920500
   175  C          0.44152150       0.94102100       0.74920500
   176  C          0.55847850       0.05897900       0.24920500
   177  C          0.03930180       0.54346900       0.81452600
   178  C          0.96069820       0.45653100       0.31452600
   179  C          0.53930180       0.95653100       0.81452600
   180  C          0.46069820       0.04346900       0.31452600
   181  H          0.05440000       0.46680000       0.82320000
   182  H          0.94560000       0.53320000       0.32320000
   183  H          0.55440000       0.03320000       0.82320000
   184  H          0.44560000       0.96680000       0.32320000
   185  H          0.96570000       0.57580000       0.85060000
   186  H          0.03430000       0.42420000       0.35060000
   187  H          0.46570000       0.92420000       0.85060000
   188  H          0.53430000       0.07580000       0.35060000
   189  H          0.16200000       0.57760000       0.81260000
   190  H          0.83800000       0.42240000       0.31260000
   191  H          0.66200000       0.92240000       0.81260000
   192  H          0.33800000       0.07760000       0.31260000
