data_IWUKAM02
_symmetry_space_group_name_H-M    'P1'
_symmetry_Int_Tables_number       1
loop_
_symmetry_equiv_pos_site_id
_symmetry_equiv_pos_as_xyz
1 x,y,z
_cell_length_a                   14.75072
_cell_length_b                   7.46791
_cell_length_c                   15.91802
_cell_angle_alpha                90.0
_cell_angle_beta                 90.85901
_cell_angle_gamma                90.0
loop_
_atom_site_label
_atom_site_type_symbol
_atom_site_fract_x
_atom_site_fract_y
_atom_site_fract_z
     1  N          0.53836700       0.35775140       0.40921600
     2  N          0.96163300       0.85775140       0.09078400
     3  N          0.46163300       0.64224860       0.59078400
     4  N          0.03836700       0.14224860       0.90921600
     5  C          0.53821700       0.29614150       0.48758700
     6  C          0.96178300       0.79614150       0.01241300
     7  C          0.46178300       0.70385850       0.51241300
     8  C          0.03821700       0.20385850       0.98758700
     9  N          0.60669600       0.30046140       0.54331600
    10  N          0.89330400       0.80046140       0.95668400
    11  N          0.39330400       0.69953860       0.45668400
    12  N          0.10669600       0.19953860       0.04331600
    13  C          0.68205800       0.36938160       0.51179700
    14  C          0.81794200       0.86938160       0.98820300
    15  C          0.31794200       0.63061840       0.48820300
    16  C          0.18205800       0.13061840       0.01179700
    17  N          0.69463700       0.42698140       0.43345600
    18  N          0.80536300       0.92698140       0.06654400
    19  N          0.30536300       0.57301860       0.56654400
    20  N          0.19463700       0.07301860       0.93345600
    21  C          0.61883800       0.42160150       0.38685700
    22  C          0.88116200       0.92160150       0.11314300
    23  C          0.38116200       0.57839850       0.61314300
    24  C          0.11883800       0.07839850       0.88685700
    25  N          0.45690600       0.22023130       0.51375600
    26  N          0.04309400       0.72023130       0.98624400
    27  N          0.54309400       0.77976870       0.48624400
    28  N          0.95690600       0.27976870       0.01375600
    29  N          0.38214600       0.23090140       0.46011600
    30  N          0.11785400       0.73090140       0.03988400
    31  N          0.61785400       0.76909860       0.53988400
    32  N          0.88214600       0.26909860       0.96011600
    33  C          0.31763800       0.14485160       0.49934800
    34  C          0.18236200       0.64485160       0.00065200
    35  C          0.68236200       0.85514840       0.50065200
    36  C          0.81763800       0.35514840      -0.00065200
    37  C          0.34852800       0.07587170       0.57775800
    38  C          0.15147200       0.57587170       0.92224200
    39  C          0.65147200       0.92412830       0.42224200
    40  C          0.84852800       0.42412830       0.07775800
    41  H          0.31531000       0.00920000       0.61941000
    42  H          0.18469000       0.50920000       0.88059000
    43  H          0.68469000      -0.00920000       0.38059000
    44  H          0.81531000       0.49080000       0.11941000
    45  C          0.43708800       0.12476160       0.58622700
    46  C          0.06291200       0.62476160       0.91377300
    47  C          0.56291200       0.87523840       0.41377300
    48  C          0.93708800       0.37523840       0.08622700
    49  C          0.22471900       0.13112000       0.46089900
    50  C          0.27528100       0.63112000       0.03910100
    51  C          0.77528100       0.86888000       0.53910100
    52  C          0.72471900       0.36888000       0.96089900
    53  C          0.50100900       0.08544190       0.65723800
    54  C         -0.00100900       0.58544190       0.84276200
    55  C          0.49899100       0.91455810       0.34276200
    56  C          0.00100900       0.41455810       0.15723800
    57  N          0.62360600       0.49300130       0.30582600
    58  N          0.87639400      -0.00699870       0.19417400
    59  N          0.37639400       0.50699870       0.69417400
    60  N          0.12360600       0.00699870       0.80582600
    61  N          0.54707700       0.48217140       0.25480600
    62  N          0.95292300      -0.01782860       0.24519400
    63  N          0.45292300       0.51782860       0.74519400
    64  N          0.04707700       0.01782860       0.75480600
    65  C          0.56853800       0.57140160       0.18660700
    66  C          0.93146200       0.07140160       0.31339300
    67  C          0.43146200       0.42859840       0.81339300
    68  C          0.06853800       0.92859840       0.68660700
    69  C          0.65812800       0.63975160       0.19148800
    70  C          0.84187200       0.13975160       0.30851200
    71  C          0.34187200       0.36024840       0.80851200
    72  C          0.15812800       0.86024840       0.69148800
    73  H          0.68831000       0.70820000       0.14891000
    74  H          0.81169000       0.20820000       0.35109000
    75  H          0.31169000       0.29180000       0.85109000
    76  H          0.18831000       0.79180000       0.64891000
    77  C          0.69258800       0.58922160       0.26781800
    78  C          0.80741200       0.08922160       0.23218200
    79  C          0.30741200       0.41077840       0.73218200
    80  C          0.19258800       0.91077840       0.76781800
    81  C          0.50022100       0.59422000       0.11705900
    82  C         -0.00022100       0.09422000       0.38294100
    83  C          0.49977900       0.40578000       0.88294100
    84  C          0.00022100       0.90578000       0.61705900
    85  C          0.78453800       0.62429170       0.30451800
    86  C          0.71546200       0.12429170       0.19548200
    87  C          0.21546200       0.37570830       0.69548200
    88  C          0.28453800       0.87570830       0.80451800
    89  N          0.75676700       0.38247140       0.56677600
    90  N          0.74323300       0.88247140       0.93322400
    91  N          0.24323300       0.61752860       0.43322400
    92  N          0.25676700       0.11752860       0.06677600
    93  N          0.84328700       0.36831140       0.53507700
    94  N          0.65671300       0.86831140       0.96492300
    95  N          0.15671300       0.63168860       0.46492300
    96  N          0.34328700       0.13168860       0.03507700
    97  C          0.89708800       0.38644170       0.60205800
    98  C          0.60291200       0.88644170       0.89794200
    99  C          0.10291200       0.61355830       0.39794200
   100  C          0.39708800       0.11355830       0.10205800
   101  C          0.84682900       0.41563190       0.67560800
   102  C          0.65317100       0.91563190       0.82439200
   103  C          0.15317100       0.58436810       0.32439200
   104  C          0.34682900       0.08436810       0.17560800
   105  H          0.87071100       0.43620000       0.73291100
   106  H          0.62928900       0.93620000       0.76708900
   107  H          0.12928900       0.56380000       0.26708900
   108  H          0.37071100       0.06380000       0.23291100
   109  C          0.75730900       0.41325180       0.65243800
   110  C          0.74269100       0.91325180       0.84756200
   111  C          0.24269100       0.58674820       0.34756200
   112  C          0.25730900       0.08674820       0.15243800
   113  C         -0.00199100       0.37655190       0.59531900
   114  C          0.50199100       0.87655190       0.90468100
   115  C          0.00199100       0.62344810       0.40468100
   116  C          0.49800900       0.12344810       0.09531900
   117  C          0.67526900       0.44752000       0.70371800
   118  C          0.82473100       0.94752000       0.79628200
   119  C          0.32473100       0.55248000       0.29628200
   120  C          0.17526900       0.05248000       0.20371800
   121  H          0.20541200       0.01230000       0.45581200
   122  H          0.29458800       0.51230000       0.04418800
   123  H          0.79458800      -0.01230000       0.54418800
   124  H          0.70541200       0.48770000       0.95581200
   125  H          0.55581300       0.02630000       0.63771200
   126  H          0.94418700       0.52630000       0.86228800
   127  H          0.44418700       0.97370000       0.36228800
   128  H          0.05581300       0.47370000       0.13771200
   129  H          0.52941200       0.58830000       0.06311300
   130  H          0.97058800       0.08830000       0.43688700
   131  H          0.47058800       0.41170000       0.93688700
   132  H          0.02941200       0.91170000       0.56311300
   133  H          0.81831200       0.69730000       0.26351100
   134  H          0.68168800       0.19730000       0.23648900
   135  H          0.18168800       0.30270000       0.73648900
   136  H          0.31831200       0.80270000       0.76351100
   137  H          0.02401200       0.29930000       0.64191200
   138  H          0.47598800       0.79930000       0.85808800
   139  H          0.97598800       0.70070000       0.35808800
   140  H          0.52401200       0.20070000       0.14191200
   141  H          0.69531200       0.50930000       0.75651200
   142  H          0.80468800       0.00930000       0.74348800
   143  H          0.30468800       0.49070000       0.24348800
   144  H          0.19531200      -0.00930000       0.25651200
   145  H          0.18131300       0.20130000       0.49291200
   146  H          0.31868700       0.70130000       0.00708800
   147  H          0.81868700       0.79870000       0.50708800
   148  H          0.68131300       0.29870000      -0.00708800
   149  H          0.52001200       0.19630000       0.68581100
   150  H          0.97998800       0.69630000       0.81418900
   151  H          0.47998800       0.80370000       0.31418900
   152  H          0.02001200       0.30370000       0.18581100
   153  H          0.46941200       0.70830000       0.12091100
   154  H          0.03058800       0.20830000       0.37908900
   155  H          0.53058800       0.29170000       0.87908900
   156  H          0.96941200       0.79170000       0.62091100
   157  H          0.78211200       0.69030000       0.35791200
   158  H          0.71788800       0.19030000       0.14208800
   159  H          0.21788800       0.30970000       0.64208800
   160  H          0.28211200       0.80970000       0.85791200
   161  H          0.02561200       0.49630000       0.60251200
   162  H          0.47438800      -0.00370000       0.89748800
   163  H          0.97438800       0.50370000       0.39748800
   164  H          0.52561200       0.00370000       0.10251200
   165  H          0.64681200       0.33330000       0.72201100
   166  H          0.85318800       0.83330000       0.77798900
   167  H          0.35318800       0.66670000       0.27798900
   168  H          0.14681200       0.16670000       0.22201100
   169  H          0.22241200       0.18230000       0.40451200
   170  H          0.27758800       0.68230000       0.09548800
   171  H          0.77758800       0.81770000       0.59548800
   172  H          0.72241200       0.31770000       0.90451200
   173  H          0.47031300       0.00630000       0.69681200
   174  H          0.02968700       0.50630000       0.80318800
   175  H          0.52968700      -0.00630000       0.30318800
   176  H          0.97031300       0.49370000       0.19681200
   177  H          0.45291300       0.50530000       0.11841200
   178  H          0.04708700       0.00530000       0.38158800
   179  H          0.54708700       0.49470000       0.88158800
   180  H          0.95291300      -0.00530000       0.61841200
   181  H          0.81861200       0.51130000       0.31501200
   182  H          0.68138800       0.01130000       0.18498800
   183  H          0.18138800       0.48870000       0.68498800
   184  H          0.31861200      -0.01130000       0.81501200
   185  H          0.01741200       0.32330000       0.54051200
   186  H          0.48258800       0.82330000       0.95948800
   187  H          0.98258800       0.67670000       0.45948800
   188  H          0.51741200       0.17670000       0.04051200
   189  H          0.62831300       0.52130000       0.67221300
   190  H          0.87168700       0.02130000       0.82778700
   191  H          0.37168700       0.47870000       0.32778700
   192  H          0.12831300       0.97870000       0.17221300
