data_IWUKAM
_symmetry_space_group_name_H-M    'P1'
_symmetry_Int_Tables_number       1
loop_
_symmetry_equiv_pos_site_id
_symmetry_equiv_pos_as_xyz
1 x,y,z
_cell_length_a                   7.94138
_cell_length_b                   12.555215
_cell_length_c                   18.900619
_cell_angle_alpha                90.0
_cell_angle_beta                 90.0
_cell_angle_gamma                90.0
loop_
_atom_site_label
_atom_site_type_symbol
_atom_site_fract_x
_atom_site_fract_y
_atom_site_fract_z
     1  N          0.29985000       0.26693000       0.25000000
     2  N          0.70015000       0.73307000       0.75000000
     3  N          0.20015000       0.76693000       0.75000000
     4  N          0.79985000       0.23307000       0.25000000
     5  C          0.37466000       0.20074000       0.29423000
     6  C          0.62534000       0.79926000       0.79423000
     7  C          0.12534000       0.70074000       0.79423000
     8  C          0.87466000       0.29926000       0.29423000
     9  N          0.37455000       0.09403000       0.29083000
    10  N          0.62545000       0.90597000       0.79083000
    11  N          0.12545000       0.59403000       0.79083000
    12  N          0.87455000       0.40597000       0.29083000
    13  C          0.28796000       0.05803000       0.23663000
    14  C          0.71204000       0.94197000       0.73663000
    15  C          0.21204000       0.55803000       0.73663000
    16  C          0.78796000       0.44197000       0.23663000
    17  N          0.20455000       0.11413000       0.18823000
    18  N          0.79545000       0.88587000       0.68823000
    19  N          0.29545000       0.61413000       0.68823000
    20  N          0.70455000       0.38587000       0.18823000
    21  C          0.22056000       0.21814000       0.19743000
    22  C          0.77944000       0.78186000       0.69743000
    23  C          0.27944000       0.71814000       0.69743000
    24  C          0.72056000       0.28186000       0.19743000
    25  N          0.46255000       0.24653000       0.35003000
    26  N          0.53745000       0.75347000       0.85003000
    27  N          0.03745000       0.74653000       0.85003000
    28  N          0.96255000       0.25347000       0.35003000
    29  N          0.46605000       0.35673000       0.35503000
    30  N          0.53395000       0.64327000       0.85503000
    31  N          0.03395000       0.85673000       0.85503000
    32  N          0.96605000       0.14327000       0.35503000
    33  C          0.55106000       0.37634000       0.41263000
    34  C          0.44894000       0.62366000       0.91263000
    35  C          0.94894000       0.87634000       0.91263000
    36  C          0.05106000       0.12366000       0.41263000
    37  C          0.60597000       0.28255000       0.44593000
    38  C          0.39403000       0.71745000       0.94593000
    39  C          0.89403000       0.78255000       0.94593000
    40  C          0.10597000       0.21745000       0.44593000
    41  C          0.54756000       0.19984000       0.40523000
    42  C          0.45244000       0.80016000       0.90523000
    43  C          0.95244000       0.69984000       0.90523000
    44  C          0.04756000       0.30016000       0.40523000
    45  C          0.58098000       0.49005000       0.43494000
    46  C          0.41902000       0.50995000       0.93494000
    47  C          0.91902000      -0.00995000       0.93494000
    48  C          0.08098000       0.00995000       0.43494000
    49  C          0.57467000       0.08294000       0.41514000
    50  C          0.42533000       0.91706000       0.91514000
    51  C          0.92533000       0.58294000       0.91514000
    52  C          0.07467000       0.41706000       0.41514000
    53  N          0.27596000       0.94727000       0.22983000
    54  N          0.72404000       0.05273000       0.72983000
    55  N          0.22404000       0.44727000       0.72983000
    56  N          0.77596000       0.55273000       0.22983000
    57  N          0.33196000       0.88357000       0.28483000
    58  N          0.66804000       0.11643000       0.78483000
    59  N          0.16804000       0.38357000       0.78483000
    60  N          0.83196000       0.61643000       0.28483000
    61  C          0.30058000       0.78606000       0.26303000
    62  C          0.69942000       0.21394000       0.76303000
    63  C          0.19942000       0.28606000       0.76303000
    64  C          0.80058000       0.71394000       0.26303000
    65  C          0.23179000       0.78506000       0.19494000
    66  C          0.76821000       0.21494000       0.69494000
    67  C          0.26821000       0.28506000       0.69494000
    68  C          0.73179000       0.71494000       0.19494000
    69  C          0.21647000       0.88746000       0.17343000
    70  C          0.78353000       0.11254000       0.67343000
    71  C          0.28353000       0.38746000       0.67343000
    72  C          0.71647000       0.61254000       0.17343000
    73  C          0.34131100       0.69316000       0.31024000
    74  C          0.65868900       0.30684000       0.81024000
    75  C          0.15868900       0.19316000       0.81024000
    76  C          0.84131100       0.80684000       0.31024000
    77  C          0.15228000       0.92986000       0.10543000
    78  C          0.84772000       0.07014000       0.60543000
    79  C          0.34772000       0.42986000       0.60543000
    80  C          0.65228000       0.57014000       0.10543000
    81  N          0.14345000       0.28373000       0.14793000
    82  N          0.85655000       0.71627000       0.64793000
    83  N          0.35655000       0.78373000       0.64793000
    84  N          0.64345000       0.21627000       0.14793000
    85  N          0.05076000       0.23883000       0.09373000
    86  N          0.94924000       0.76117000       0.59373000
    87  N          0.44924000       0.73883000       0.59373000
    88  N          0.55076000       0.26117000       0.09373000
    89  C          0.00577000       0.31984000       0.05333000
    90  C         -0.00577000       0.68016000       0.55333000
    91  C          0.49423000       0.81984000       0.55333000
    92  C          0.50577000       0.18016000       0.05333000
    93  C          0.07047000       0.41644000       0.07993000
    94  C          0.92953000       0.58356000       0.57993000
    95  C          0.42953000       0.91644000       0.57993000
    96  C          0.57047000       0.08356000       0.07993000
    97  C          0.15726000       0.39414000       0.14073000
    98  C          0.84274000       0.60586000       0.64073000
    99  C          0.34274000       0.89414000       0.64073000
   100  C          0.65726000       0.10586000       0.14073000
   101  C          0.90312000       0.30155000       0.98846000
   102  C          0.09688000       0.69845000       0.48846000
   103  C          0.59688000       0.80155000       0.48846000
   104  C          0.40312000       0.19845000       0.98846000
   105  C          0.24808000       0.46664000       0.18904000
   106  C          0.75192000       0.53336000       0.68904000
   107  C          0.25192000       0.96664000       0.68904000
   108  C          0.74808000       0.03336000       0.18904000
   109  H          0.67560000       0.27640000       0.48130000
   110  H          0.32440000       0.72360000       0.98130000
   111  H          0.82440000       0.77640000       0.98130000
   112  H          0.17560000       0.22360000       0.48130000
   113  H          0.49410000       0.52950000       0.43340000
   114  H          0.50590000       0.47050000       0.93340000
   115  H          0.00590000       0.02950000       0.93340000
   116  H         -0.00590000       0.97050000       0.43340000
   117  H          0.64780000       0.53750000       0.40930000
   118  H          0.35220000       0.46250000       0.90930000
   119  H          0.85220000       0.03750000       0.90930000
   120  H          0.14780000       0.96250000       0.40930000
   121  H          0.63090000       0.49660000       0.48540000
   122  H          0.36910000       0.50340000       0.98540000
   123  H          0.86910000      -0.00340000       0.98540000
   124  H          0.13090000       0.00340000       0.48540000
   125  H          0.64780000       0.05350000       0.37730000
   126  H          0.35220000       0.94650000       0.87730000
   127  H          0.85220000       0.55350000       0.87730000
   128  H          0.14780000       0.44650000       0.37730000
   129  H          0.64960000       0.07140000       0.45420000
   130  H          0.35040000       0.92860000       0.95420000
   131  H          0.85040000       0.57140000       0.95420000
   132  H          0.14960000       0.42860000       0.45420000
   133  H          0.46870000       0.04340000       0.42030000
   134  H          0.53130000       0.95660000       0.92030000
   135  H          0.03130000       0.54340000       0.92030000
   136  H          0.96870000       0.45660000       0.42030000
   137  H          0.19150000       0.72270000       0.17120000
   138  H          0.80850000       0.27730000       0.67120000
   139  H          0.30850000       0.22270000       0.67120000
   140  H          0.69150000       0.77730000       0.17120000
   141  H          0.24990000       0.65550000       0.31640000
   142  H          0.75010000       0.34450000       0.81640000
   143  H          0.25010000       0.15550000       0.81640000
   144  H          0.74990000       0.84450000       0.31640000
   145  H          0.43790000       0.70250000       0.34840000
   146  H          0.56210000       0.29750000       0.84840000
   147  H          0.06210000       0.20250000       0.84840000
   148  H          0.93790000       0.79750000       0.34840000
   149  H          0.41860000       0.64260000       0.28430000
   150  H          0.58140000       0.35740000       0.78430000
   151  H          0.08140000       0.14260000       0.78430000
   152  H          0.91860000       0.85740000       0.28430000
   153  H          0.11370000       0.87850000       0.07930000
   154  H          0.88630000       0.12150000       0.57930000
   155  H          0.38630000       0.37850000       0.57930000
   156  H          0.61370000       0.62150000       0.07930000
   157  H          0.04670000       0.97660000       0.10730000
   158  H          0.95330000       0.02340000       0.60730000
   159  H          0.45330000       0.47660000       0.60730000
   160  H          0.54670000       0.52340000       0.10730000
   161  H          0.22980000       0.97050000       0.07830000
   162  H          0.77020000       0.02950000       0.57830000
   163  H          0.27020000       0.47050000       0.57830000
   164  H          0.72980000       0.52950000       0.07830000
   165  H          0.03870000       0.47940000       0.06030000
   166  H          0.96130000       0.52060000       0.56030000
   167  H          0.46130000       0.97940000       0.56030000
   168  H          0.53870000       0.02060000       0.06030000
   169  H          0.81420000       0.34250000       0.99060000
   170  H          0.18580000       0.65750000       0.49060000
   171  H          0.68580000       0.84250000       0.49060000
   172  H          0.31420000       0.15750000       0.99060000
   173  H          0.87010000       0.22960000       0.98960000
   174  H          0.12990000       0.77040000       0.48960000
   175  H          0.62990000       0.72960000       0.48960000
   176  H          0.37010000       0.27040000       0.98960000
   177  H          0.98040000       0.32340000       0.95270000
   178  H          0.01960000       0.67660000       0.45270000
   179  H          0.51960000       0.82340000       0.45270000
   180  H          0.48040000       0.17660000       0.95270000
   181  H          0.25780000       0.52550000       0.16930000
   182  H          0.74220000       0.47450000       0.66930000
   183  H          0.24220000       0.02550000       0.66930000
   184  H          0.75780000       0.97450000       0.16930000
   185  H          0.35990000       0.45360000       0.20640000
   186  H          0.64010000       0.54640000       0.70640000
   187  H          0.14010000       0.95360000       0.70640000
   188  H          0.85990000       0.04640000       0.20640000
   189  H          0.16280000       0.46650000       0.23530000
   190  H          0.83720000       0.53350000       0.73530000
   191  H          0.33720000       0.96650000       0.73530000
   192  H          0.66280000       0.03350000       0.23530000
