data_JATFUF02
_symmetry_space_group_name_H-M    'P1'
_symmetry_Int_Tables_number       1
loop_
_symmetry_equiv_pos_site_id
_symmetry_equiv_pos_as_xyz
1 x,y,z
_cell_length_a                   13.7793
_cell_length_b                   7.4882
_cell_length_c                   3.8252
_cell_angle_alpha                90.0
_cell_angle_beta                 98.843
_cell_angle_gamma                90.0
loop_
_atom_site_label
_atom_site_type_symbol
_atom_site_fract_x
_atom_site_fract_y
_atom_site_fract_z
     1  C          0.83593000       0.85506000       0.09301200
     2  C          0.16407000       0.35506000       0.90698800
     3  C          0.72284000       0.68327000       0.78298600
     4  C          0.27716000       0.18327000       0.21701400
     5  C          0.68354000       0.95336000       0.94598600
     6  C          0.31646000       0.45336000       0.05401400
     7  C          0.52234000       0.06891100       0.78148100
     8  C          0.47766000       0.56891100       0.21851900
     9  C          0.76145000       0.39138000       0.60080000
    10  C          0.23855000       0.89138000       0.39920000
    11  C          0.96094000       0.03809000       0.40751500
    12  C          0.03906000       0.53809000       0.59248500
    13  H          0.92350000       0.06240000       0.59410000
    14  H          0.07650000       0.56240000       0.40590000
    15  H          0.95070000       0.13200000       0.23490000
    16  H          0.04930000       0.63200000       0.76510000
    17  H          0.02940000       0.03120000       0.50370000
    18  H          0.97060000       0.53120000       0.49630000
    19  N          0.77523000      -0.01145000       0.11541000
    20  N          0.22477000       0.48855000       0.88459000
    21  N          0.81583000       0.69556000       0.93688800
    22  N          0.18417000       0.19556000       0.06311200
    23  N          0.65263000       0.80726000       0.77818800
    24  N          0.34737000       0.30726000       0.22181200
    25  O          0.92962000       0.87145000       0.24271000
    26  O          0.07038000       0.37145000       0.75729000
    27  O          0.62202000       0.08875000      -0.03341000
    28  O          0.37798000       0.58875000       0.03341000
    29  O          0.69083000       0.53355000       0.61949000
    30  O          0.30917000       0.03355000       0.38051000
    31  H          0.52840000       0.05890000       0.58484000
    32  H          0.47160000       0.55890000       0.41516000
    33  H          0.49760000       0.18112000       0.74800000
    34  H          0.50240000       0.68112000       0.25200000
    35  H          0.47850000       0.96610000       0.88783000
    36  H          0.52150000       0.46610000       0.11217000
    37  H          0.78550000       0.35890000       0.83981000
    38  H          0.21450000       0.85890000       0.16019000
    39  H          0.81140000       0.43480000       0.45686000
    40  H          0.18860000       0.93480000       0.54314000
    41  H          0.73240000       0.30090000       0.46184000
    42  H          0.26760000       0.80090000       0.53816000
