data_JATFUF
_symmetry_space_group_name_H-M    'P1'
_symmetry_Int_Tables_number       1
loop_
_symmetry_equiv_pos_site_id
_symmetry_equiv_pos_as_xyz
1 x,y,z
_cell_length_a                   8.4742
_cell_length_b                   6.7191
_cell_length_c                   14.4092
_cell_angle_alpha                90.0
_cell_angle_beta                 90.0
_cell_angle_gamma                90.0
loop_
_atom_site_label
_atom_site_type_symbol
_atom_site_fract_x
_atom_site_fract_y
_atom_site_fract_z
     1  O          0.66393000       0.25000000       0.53732000
     2  O          0.83607000       0.75000000       0.03732000
     3  O          0.16393000       0.25000000       0.96268000
     4  O          0.33607000       0.75000000       0.46268000
     5  N          0.12173000       0.25000000       0.48181000
     6  N          0.37827000       0.75000000       0.98181000
     7  N          0.62173000       0.25000000       0.01819000
     8  N          0.87827000       0.75000000       0.51819000
     9  O          0.16983000       0.25000000       0.63421000
    10  O          0.33017000       0.75000000       0.13421000
    11  O          0.66983000       0.25000000       0.86579000
    12  O          0.83017000       0.75000000       0.36579000
    13  O          0.05663000       0.25000000       0.32712000
    14  O          0.44337000       0.75000000       0.82712000
    15  O          0.55663000       0.25000000       0.17288000
    16  O          0.94337000       0.75000000       0.67288000
    17  N          0.85753000       0.25000000       0.42782000
    18  N          0.64247000       0.75000000       0.92782000
    19  N          0.35753000       0.25000000       0.07218000
    20  N          0.14247000       0.75000000       0.57218000
    21  N          0.91153000       0.25000000       0.58952000
    22  N          0.58847000       0.75000000       0.08952000
    23  N          0.41153000       0.25000000       0.91048000
    24  N          0.08847000       0.75000000       0.41048000
    25  C          0.01443000       0.25000000       0.41592000
    26  C          0.48557000       0.75000000       0.91592000
    27  C          0.51443000       0.25000000       0.08408000
    28  C         -0.01443000       0.75000000       0.58408000
    29  C          0.81544000       0.25000000       0.51532000
    30  C          0.68456000       0.75000000       0.01532000
    31  C          0.31544000       0.25000000       0.98468000
    32  C          0.18456000       0.75000000       0.48468000
    33  C          0.06154000       0.25000000       0.56712000
    34  C          0.43846000       0.75000000       0.06712000
    35  C          0.56154000       0.25000000       0.93288000
    36  C          0.93846000       0.75000000       0.43288000
    37  C          0.22255000       0.25000000       0.30842000
    38  C          0.27745000       0.75000000       0.80842000
    39  C          0.72255000       0.25000000       0.19158000
    40  C          0.77745000       0.75000000       0.69158000
    41  C          0.55285000       0.25000000       0.46063000
    42  C          0.94715000       0.75000000       0.96063000
    43  C          0.05285000       0.25000000       0.03937000
    44  C          0.44715000       0.75000000       0.53937000
    45  C          0.11246000       0.25000000       0.72872000
    46  C          0.38754000       0.75000000       0.22872000
    47  C          0.61246000       0.25000000       0.77128000
    48  C          0.88754000       0.75000000       0.27128000
    49  H          0.21886000       0.25010000       0.75852000
    50  H          0.28114000       0.74990000       0.25852000
    51  H          0.71886000       0.24990000       0.74148000
    52  H          0.78114000       0.75010000       0.24148000
    53  H          0.04336000       0.37380000       0.73742000
    54  H          0.45664000       0.62620000       0.23742000
    55  H          0.54336000       0.12620000       0.76258000
    56  H          0.95664000       0.87380000       0.26258000
    57  H          0.95664000       0.62620000       0.26258000
    58  H          0.54336000       0.37380000       0.76258000
    59  H          0.45664000       0.87380000       0.23742000
    60  H          0.04336000       0.12620000       0.73742000
    61  H          0.44935000       0.25020000       0.49233000
    62  H          0.05065000       0.74980000      -0.00767000
    63  H          0.94935000       0.24980000       0.00767000
    64  H          0.55065000       0.75020000       0.50767000
    65  H          0.57575000       0.37190000       0.41993000
    66  H          0.92425000       0.62810000       0.91993000
    67  H          0.07575000       0.12810000       0.08007000
    68  H          0.42425000       0.87190000       0.58007000
    69  H          0.42425000       0.62810000       0.58007000
    70  H          0.07575000       0.37190000       0.08007000
    71  H          0.92425000       0.87190000       0.91993000
    72  H          0.57575000       0.12810000       0.41993000
    73  H          0.23115000       0.25020000       0.24502000
    74  H          0.26885000       0.74980000       0.74502000
    75  H          0.73115000       0.24980000       0.25498000
    76  H          0.76885000       0.75020000       0.75498000
    77  H          0.27415000       0.37630000       0.33742000
    78  H          0.22585000       0.62370000       0.83742000
    79  H          0.77415000       0.12370000       0.16258000
    80  H          0.72585000       0.87630000       0.66258000
    81  H          0.72585000       0.62370000       0.66258000
    82  H          0.77415000       0.37630000       0.16258000
    83  H          0.22585000       0.87630000       0.83742000
    84  H          0.27415000       0.12370000       0.33742000
