data_JATFUF03
_symmetry_space_group_name_H-M    'P1'
_symmetry_Int_Tables_number       1
loop_
_symmetry_equiv_pos_site_id
_symmetry_equiv_pos_as_xyz
1 x,y,z
_cell_length_a                   14.02701
_cell_length_b                   14.02701
_cell_length_c                   7.08801
_cell_angle_alpha                90.0
_cell_angle_beta                 90.0
_cell_angle_gamma                120.0
loop_
_atom_site_label
_atom_site_type_symbol
_atom_site_fract_x
_atom_site_fract_y
_atom_site_fract_z
     1  N          0.03722000       0.92624810       0.41413000
     2  N          0.07375190       0.11097190       0.41413000
     3  N          0.88902810       0.96278000       0.41413000
     4  N          0.07375190       0.96278000       0.91413000
     5  N          0.03722000       0.11097190       0.91413000
     6  N          0.88902810       0.92624810       0.91413000
     7  N          0.70388667       0.25958143       0.74746333
     8  N          0.74041857       0.44430523       0.74746333
     9  N          0.55569477       0.29611333       0.74746333
    10  N          0.74041857       0.29611333       0.24746333
    11  N          0.70388667       0.44430523       0.24746333
    12  N          0.55569477       0.25958143       0.24746333
    13  N          0.37055333       0.59291477       0.08079667
    14  N          0.40708523       0.77763857       0.08079667
    15  N          0.22236143       0.62944667       0.08079667
    16  N          0.40708523       0.62944667       0.58079667
    17  N          0.37055333       0.77763857       0.58079667
    18  N          0.22236143       0.59291477       0.58079667
    19  C          0.10312000       0.03532000       0.41483000
    20  C          0.96468000       0.06780000       0.41483000
    21  C          0.93220000       0.89688000       0.41483000
    22  C          0.96468000       0.89688000       0.91483000
    23  C          0.10312000       0.06780000       0.91483000
    24  C          0.93220000       0.03532000       0.91483000
    25  C          0.76978667       0.36865333       0.74816333
    26  C          0.63134667       0.40113333       0.74816333
    27  C          0.59886667       0.23021333       0.74816333
    28  C          0.63134667       0.23021333       0.24816333
    29  C          0.76978667       0.40113333       0.24816333
    30  C          0.59886667       0.36865333       0.24816333
    31  C          0.43645333       0.70198667       0.08149667
    32  C          0.29801333       0.73446667       0.08149667
    33  C          0.26553333       0.56354667       0.08149667
    34  C          0.29801333       0.56354667       0.58149667
    35  C          0.43645333       0.73446667       0.58149667
    36  C          0.26553333       0.70198667       0.58149667
    37  O          0.20930180       0.06550150       0.41815000
    38  O          0.93449850       0.14380030       0.41815000
    39  O          0.85619970       0.79069820       0.41815000
    40  O          0.93449850       0.79069820       0.91815000
    41  O          0.20930180       0.14380030       0.91815000
    42  O          0.85619970       0.06550150       0.91815000
    43  O          0.87596847       0.39883483       0.75148333
    44  O          0.60116517       0.47713363       0.75148333
    45  O          0.52286637       0.12403153       0.75148333
    46  O          0.60116517       0.12403153       0.25148333
    47  O          0.87596847       0.47713363       0.25148333
    48  O          0.52286637       0.39883483       0.25148333
    49  O          0.54263513       0.73216817       0.08481667
    50  O          0.26783183       0.81046697       0.08481667
    51  O          0.18953303       0.45736487       0.08481667
    52  O          0.26783183       0.45736487       0.58481667
    53  O          0.54263513       0.81046697       0.58481667
    54  O          0.18953303       0.73216817       0.58481667
    55  C          0.28813000       0.18313000       0.42247000
    56  C          0.81687000       0.10500000       0.42247000
    57  C          0.89500000       0.71187000       0.42247000
    58  C          0.81687000       0.71187000       0.92247000
    59  C          0.28813000       0.10500000       0.92247000
    60  C          0.89500000       0.18313000       0.92247000
    61  C          0.95479667       0.51646333       0.75580333
    62  C          0.48353667       0.43833333       0.75580333
    63  C          0.56166667       0.04520333       0.75580333
    64  C          0.48353667       0.04520333       0.25580333
    65  C          0.95479667       0.43833333       0.25580333
    66  C          0.56166667       0.51646333       0.25580333
    67  C          0.62146333       0.84979667       0.08913667
    68  C          0.15020333       0.77166667       0.08913667
    69  C          0.22833333       0.37853667       0.08913667
    70  C          0.15020333       0.37853667       0.58913667
    71  C          0.62146333       0.77166667       0.58913667
    72  C          0.22833333       0.84979667       0.58913667
    73  H          0.36160000       0.19460000       0.42450000
    74  H          0.80540000       0.16700000       0.42450000
    75  H          0.83300000       0.63840000       0.42450000
    76  H          0.80540000       0.63840000       0.92450000
    77  H          0.36160000       0.16700000       0.92450000
    78  H          0.83300000       0.19460000       0.92450000
    79  H          0.02826667       0.52793333       0.75783333
    80  H          0.47206667       0.50033333       0.75783333
    81  H          0.49966667       0.97173333       0.75783333
    82  H          0.47206667       0.97173333       0.25783333
    83  H          0.02826667       0.50033333       0.25783333
    84  H          0.49966667       0.52793333       0.25783333
    85  H          0.69493333       0.86126667       0.09116667
    86  H          0.13873333       0.83366667       0.09116667
    87  H          0.16633333       0.30506667       0.09116667
    88  H          0.13873333       0.30506667       0.59116667
    89  H          0.69493333       0.83366667       0.59116667
    90  H          0.16633333       0.86126667       0.59116667
    91  H          0.27610000       0.21500000       0.53330000
    92  H          0.78500000       0.06110000       0.53330000
    93  H          0.93890000       0.72390000       0.53330000
    94  H          0.78500000       0.72390000       0.03330000
    95  H          0.27610000       0.06110000       0.03330000
    96  H          0.93890000       0.21500000       0.03330000
    97  H          0.94276667       0.54833333       0.86663333
    98  H          0.45166667       0.39443333       0.86663333
    99  H          0.60556667       0.05723333       0.86663333
   100  H          0.45166667       0.05723333       0.36663333
   101  H          0.94276667       0.39443333       0.36663333
   102  H          0.60556667       0.54833333       0.36663333
   103  H          0.60943333       0.88166667       0.19996667
   104  H          0.11833333       0.72776667       0.19996667
   105  H          0.27223333       0.39056667       0.19996667
   106  H          0.11833333       0.39056667       0.69996667
   107  H          0.60943333       0.72776667       0.69996667
   108  H          0.27223333       0.88166667       0.69996667
   109  H          0.27880000       0.21740000       0.31210000
   110  H          0.78260000       0.06140000       0.31210000
   111  H          0.93860000       0.72120000       0.31210000
   112  H          0.78260000       0.72120000       0.81210000
   113  H          0.27880000       0.06140000       0.81210000
   114  H          0.93860000       0.21740000       0.81210000
   115  H          0.94546667       0.55073333       0.64543333
   116  H          0.44926667       0.39473333       0.64543333
   117  H          0.60526667       0.05453333       0.64543333
   118  H          0.44926667       0.05453333       0.14543333
   119  H          0.94546667       0.39473333       0.14543333
   120  H          0.60526667       0.55073333       0.14543333
   121  H          0.61213333       0.88406667       0.97876667
   122  H          0.11593333       0.72806667       0.97876667
   123  H          0.27193333       0.38786667       0.97876667
   124  H          0.11593333       0.38786667       0.47876667
   125  H          0.61213333       0.72806667       0.47876667
   126  H          0.27193333       0.88406667       0.47876667
