data_JAYPUU
_symmetry_space_group_name_H-M    'P1'
_symmetry_Int_Tables_number       1
loop_
_symmetry_equiv_pos_site_id
_symmetry_equiv_pos_as_xyz
1 x,y,z
_cell_length_a                   7.8254
_cell_length_b                   8.2571
_cell_length_c                   13.2682
_cell_angle_alpha                90.0
_cell_angle_beta                 90.0
_cell_angle_gamma                90.0
loop_
_atom_site_label
_atom_site_type_symbol
_atom_site_fract_x
_atom_site_fract_y
_atom_site_fract_z
     1  H          0.93750000       0.30430000       0.60220000
     2  H          0.43750000       0.19570000       0.39780000
     3  H          0.06250000       0.80430000       0.89780000
     4  H          0.56250000       0.69570000       0.10220000
     5  H          0.80040000       0.29830000       0.53420000
     6  H          0.30040000       0.20170000       0.46580000
     7  H          0.19960000       0.79830000       0.96580000
     8  H          0.69960000       0.70170000       0.03420000
     9  N          0.82864000       0.32623000       0.59742000
    10  N          0.32864000       0.17377000       0.40258000
    11  N          0.17136000       0.82623000       0.90258000
    12  N          0.67136000       0.67377000       0.09742000
    13  C          0.80095000       0.50464000       0.61342000
    14  C          0.30095000      -0.00464000       0.38658000
    15  C          0.19905000       0.00464000       0.88658000
    16  C          0.69905000       0.49536000       0.11342000
    17  C          0.61366000       0.54645000       0.60374000
    18  C          0.11366000       0.95355000       0.39626000
    19  C          0.38634000       0.04645000       0.89626000
    20  C          0.88634000       0.45355000       0.10374000
    21  C          0.90847000       0.59305000       0.53763000
    22  C          0.40847000       0.90695000       0.46237000
    23  C          0.09153000       0.09305000       0.96237000
    24  C          0.59153000       0.40695000       0.03763000
    25  C          0.73735000       0.21144000       0.66663000
    26  C          0.23735000       0.28856000       0.33337000
    27  C          0.26265000       0.71144000       0.83337000
    28  C          0.76265000       0.78856000       0.16663000
    29  C          0.78096000       0.24915000       0.77573000
    30  C          0.28096000       0.25085000       0.22427000
    31  C          0.21904000       0.74915000       0.72427000
    32  C          0.71904000       0.75085000       0.27573000
    33  C          0.78786000       0.04014000       0.63793000
    34  C          0.28786000       0.45986000       0.36207000
    35  C          0.21214000       0.54014000       0.86207000
    36  C          0.71214000       0.95986000       0.13793000
    37  H          0.83400000       0.53600000       0.67900000
    38  H          0.33400000       0.96400000       0.32100000
    39  H          0.16600000       0.03600000       0.82100000
    40  H          0.66600000       0.46400000       0.17900000
    41  H          0.55000000       0.48800000       0.65300000
    42  H          0.05000000       0.01200000       0.34700000
    43  H          0.45000000      -0.01200000       0.84700000
    44  H          0.95000000       0.51200000       0.15300000
    45  H          0.59800000       0.65900000       0.61400000
    46  H          0.09800000       0.84100000       0.38600000
    47  H          0.40200000       0.15900000       0.88600000
    48  H          0.90200000       0.34100000       0.11400000
    49  H          0.57500000       0.51800000       0.53800000
    50  H          0.07500000       0.98200000       0.46200000
    51  H          0.42500000       0.01800000       0.96200000
    52  H          0.92500000       0.48200000       0.03800000
    53  H          0.02500000       0.56400000       0.54600000
    54  H          0.52500000       0.93600000       0.45400000
    55  H          0.97500000       0.06400000       0.95400000
    56  H          0.47500000       0.43600000       0.04600000
    57  H          0.87200000       0.56500000       0.47100000
    58  H          0.37200000       0.93500000       0.52900000
    59  H          0.12800000       0.06500000       0.02900000
    60  H          0.62800000       0.43500000       0.97100000
    61  H          0.89600000       0.70600000       0.54700000
    62  H          0.39600000       0.79400000       0.45300000
    63  H          0.10400000       0.20600000       0.95300000
    64  H          0.60400000       0.29400000       0.04700000
    65  H          0.61700000       0.22200000       0.66000000
    66  H          0.11700000       0.27800000       0.34000000
    67  H          0.38300000       0.72200000       0.84000000
    68  H          0.88300000       0.77800000       0.16000000
    69  H          0.74800000       0.35700000       0.79100000
    70  H          0.24800000       0.14300000       0.20900000
    71  H          0.25200000       0.85700000       0.70900000
    72  H          0.75200000       0.64300000       0.29100000
    73  H          0.72200000       0.17600000       0.81900000
    74  H          0.22200000       0.32400000       0.18100000
    75  H          0.27800000       0.67600000       0.68100000
    76  H          0.77800000       0.82400000       0.31900000
    77  H          0.90100000       0.23800000       0.78600000
    78  H          0.40100000       0.26200000       0.21400000
    79  H          0.09900000       0.73800000       0.71400000
    80  H          0.59900000       0.76200000       0.28600000
    81  H          0.75900000       0.02100000       0.56900000
    82  H          0.25900000       0.47900000       0.43100000
    83  H          0.24100000       0.52100000       0.93100000
    84  H          0.74100000       0.97900000       0.06900000
    85  H          0.90700000       0.02700000       0.64700000
    86  H          0.40700000       0.47300000       0.35300000
    87  H          0.09300000       0.52700000       0.85300000
    88  H          0.59300000       0.97300000       0.14700000
    89  H          0.72900000       0.96500000       0.68000000
    90  H          0.22900000       0.53500000       0.32000000
    91  H          0.27100000       0.46500000       0.82000000
    92  H          0.77100000       0.03500000       0.18000000
    93  Cl         0.72371000       0.24961000       0.37219600
    94  Cl         0.22371000       0.25039000       0.62780400
    95  Cl         0.27629000       0.74961000       0.12780400
    96  Cl         0.77629000       0.75039000       0.87219600
