data_JAYPUU01
_symmetry_space_group_name_H-M    'P1'
_symmetry_Int_Tables_number       1
loop_
_symmetry_equiv_pos_site_id
_symmetry_equiv_pos_as_xyz
1 x,y,z
_cell_length_a                   7.6155
_cell_length_b                   7.9325
_cell_length_c                   7.7505
_cell_angle_alpha                90.0
_cell_angle_beta                 115.204
_cell_angle_gamma                90.0
loop_
_atom_site_label
_atom_site_type_symbol
_atom_site_fract_x
_atom_site_fract_y
_atom_site_fract_z
     1  Cl         0.64962000       0.33823120       0.37422000
     2  Cl         0.35038000       0.83823120       0.62578000
     3  N          0.34196000       0.23166000       0.53416000
     4  N          0.65804000       0.73166000       0.46584000
     5  H          0.34966000       0.11906000       0.56516000
     6  H          0.65034000       0.61906000       0.43484000
     7  H          0.43546000       0.25246000       0.49126000
     8  H          0.56454000       0.75246000       0.50874000
     9  C          0.39237000       0.33041200       0.71217000
    10  C          0.60763000       0.83041200       0.28783000
    11  H          0.39967000       0.45211200       0.68207000
    12  H          0.60033000       0.95211200       0.31793000
    13  C          0.14391000       0.26289000       0.36869000
    14  C          0.85609000       0.76289000       0.63131000
    15  H          0.04011000       0.23619000       0.41119000
    16  H          0.95989000       0.73619000       0.58881000
    17  C          0.24019000       0.31241400       0.79041000
    18  C          0.75981000       0.81241400       0.20959000
    19  H          0.11321900       0.34756800       0.69283100
    20  H          0.88678100       0.84756800       0.30716900
    21  H          0.27594400       0.38385400       0.90354900
    22  H          0.72405600       0.88385400       0.09645100
    23  H          0.23365600       0.19451900       0.82497200
    24  H          0.76634400       0.69451900       0.17502800
    25  C          0.12651000       0.14199000       0.20928000
    26  C          0.87349000       0.64199000       0.79072000
    27  H          0.13206500       0.02549000       0.25342300
    28  H          0.86793500       0.52549000       0.74657700
    29  H          0.23373900       0.16163900       0.17344400
    30  H          0.76626100       0.66163900       0.82655600
    31  H          0.00273100       0.16094000       0.09822400
    32  H         -0.00273100       0.66094000       0.90177600
    33  C          0.59289000       0.27528000       0.85488000
    34  C          0.40711000       0.77528000       0.14512000
    35  H          0.68781300       0.30095000       0.80423000
    36  H          0.31218700       0.80095000       0.19577000
    37  H          0.59231900       0.15361300       0.87694700
    38  H          0.40768100       0.65361300       0.12305300
    39  H          0.62772800       0.33554200       0.97532300
    40  H          0.37227200       0.83554200       0.02467700
    41  C          0.12391100       0.44631000       0.30461100
    42  C          0.87608900       0.94631000       0.69538900
    43  H          0.13246300       0.51951000       0.40982300
    44  H          0.86753700       0.01951000       0.59017700
    45  H         -0.00192900       0.46271600       0.19554100
    46  H          0.00192900       0.96271600       0.80445900
    47  H          0.22833900       0.47461800       0.26756000
    48  H          0.77166100       0.97461800       0.73244000
