data_JAYPUU03
_symmetry_space_group_name_H-M    'P1'
_symmetry_Int_Tables_number       1
loop_
_symmetry_equiv_pos_site_id
_symmetry_equiv_pos_as_xyz
1 x,y,z
_cell_length_a                   8.17185
_cell_length_b                   7.80655
_cell_length_c                   13.18208
_cell_angle_alpha                90.0
_cell_angle_beta                 91.82001
_cell_angle_gamma                90.0
loop_
_atom_site_label
_atom_site_type_symbol
_atom_site_fract_x
_atom_site_fract_y
_atom_site_fract_z
     1  Cl         0.73859200       0.76750800       0.11679010
     2  Cl         0.76140800       0.26750800       0.38320990
     3  Cl         0.26140800       0.23249200       0.88320990
     4  Cl         0.23859200       0.73249200       0.61679010
     5  N          0.68141500       0.16377600       0.15401300
     6  N          0.81858500       0.66377600       0.34598700
     7  N          0.31858500       0.83622400       0.84598700
     8  N          0.18141500       0.33622400       0.65401300
     9  C          0.79659800       0.26026700       0.08760500
    10  C          0.70340200       0.76026700       0.41239500
    11  C          0.20340200       0.73973300       0.91239500
    12  C          0.29659800       0.23973300       0.58760500
    13  C          0.96983800       0.20392100       0.11780600
    14  C          0.53016200       0.70392100       0.38219400
    15  C          0.03016200       0.79607900       0.88219400
    16  C          0.46983800       0.29607900       0.61780600
    17  C          0.75642100       0.22245110       0.97642500
    18  C          0.74357900       0.72245110       0.52357500
    19  C          0.24357900       0.77754890       0.02357500
    20  C          0.25642100       0.27754890       0.47642500
    21  C          0.50013700       0.19292800       0.13682400
    22  C         -0.00013700       0.69292800       0.36317600
    23  C          0.49986300       0.80707200       0.86317600
    24  C          0.00013700       0.30707200       0.63682400
    25  C          0.45855900       0.38043900       0.15084700
    26  C          0.04144100       0.88043900       0.34915300
    27  C          0.54144100       0.61956100       0.84915300
    28  C          0.95855900       0.11956100       0.65084700
    29  C          0.41245800       0.07820100       0.21038500
    30  C          0.08754200       0.57820100       0.28961500
    31  C          0.58754200       0.92179900       0.78961500
    32  C          0.91245800       0.42179900       0.71038500
    33  H          0.70161000       0.05241400       0.14497000
    34  H          0.79839000       0.55241400       0.35503000
    35  H          0.29839000       0.94758600       0.85503000
    36  H          0.20161000       0.44758600       0.64497000
    37  H          0.70711100       0.18711300       0.21917000
    38  H          0.79288900       0.68711300       0.28083000
    39  H          0.29288900       0.81288700       0.78083000
    40  H          0.20711100       0.31288700       0.71917000
    41  H          0.47569000       0.15971200       0.06866000
    42  H          0.02431000       0.65971200       0.43134000
    43  H          0.52431000       0.84028800       0.93134000
    44  H          0.97569000       0.34028800       0.56866000
    45  H          0.51771200       0.45471400       0.10878000
    46  H          0.98228800       0.95471400       0.39122000
    47  H          0.48228800       0.54528600       0.89122000
    48  H          0.01771200       0.04528600       0.60878000
    49  H          0.48211300       0.41451500       0.22158000
    50  H          0.01788700       0.91451500       0.27842000
    51  H          0.51788700       0.58548500       0.77842000
    52  H          0.98211300       0.08548500       0.72158000
    53  H          0.34111300       0.39411500       0.13918000
    54  H          0.15888700       0.89411500       0.36082000
    55  H          0.65888700       0.60588500       0.86082000
    56  H          0.84111300       0.10588500       0.63918000
    57  H          0.43641200       0.96168600       0.19797000
    58  H          0.06358800       0.46168600       0.30203000
    59  H          0.56358800       0.03831400       0.80203000
    60  H          0.93641200       0.53831400       0.69797000
    61  H          0.29291200       0.09251400       0.20237000
    62  H          0.20708800       0.59251400       0.29763000
    63  H          0.70708800       0.90748600       0.79763000
    64  H          0.79291200       0.40748600       0.70237000
    65  H          0.44501200       0.11041300       0.27838000
    66  H          0.05498800       0.61041300       0.22162000
    67  H          0.55498800       0.88958700       0.72162000
    68  H          0.94501200       0.38958700       0.77838000
    69  H          0.77771000       0.38341200       0.10356000
    70  H          0.72229000       0.88341200       0.39644000
    71  H          0.22229000       0.61658800       0.89644000
    72  H          0.27771000       0.11658800       0.60356000
    73  H          0.64531400       0.26311200       0.95562000
    74  H          0.85468600       0.76311200       0.54438000
    75  H          0.35468600       0.73688800       0.04438000
    76  H          0.14531400       0.23688800       0.45562000
    77  H          0.76361200       0.09661400       0.96583000
    78  H          0.73638800       0.59661400       0.53417000
    79  H          0.23638800       0.90338600       0.03417000
    80  H          0.26361200       0.40338600       0.46583000
    81  H          0.83791600       0.28451500       0.94019000
    82  H          0.66208400       0.78451500       0.55981000
    83  H          0.16208400       0.71548500       0.05981000
    84  H          0.33791600       0.21548500       0.44019000
    85  H         -0.00828700       0.21921300       0.18518000
    86  H          0.50828700       0.71921300       0.31482000
    87  H          0.00828700       0.78078700       0.81482000
    88  H          0.49171300       0.28078700       0.68518000
    89  H          0.05421800       0.26701400       0.08441000
    90  H          0.44578200       0.76701400       0.41559000
    91  H          0.94578200       0.73298600       0.91559000
    92  H          0.55421800       0.23298600       0.58441000
    93  H         -0.01629000       0.07841300       0.10587000
    94  H          0.51629000       0.57841300       0.39413000
    95  H          0.01629000       0.92158700       0.89413000
    96  H          0.48371000       0.42158700       0.60587000
