data_JEGGEK03
_symmetry_space_group_name_H-M    'P1'
_symmetry_Int_Tables_number       1
loop_
_symmetry_equiv_pos_site_id
_symmetry_equiv_pos_as_xyz
1 x,y,z
_cell_length_a                   9.9542
_cell_length_b                   12.5793
_cell_length_c                   14.1423
_cell_angle_alpha                66.593
_cell_angle_beta                 73.973
_cell_angle_gamma                87.773
loop_
_atom_site_label
_atom_site_type_symbol
_atom_site_fract_x
_atom_site_fract_y
_atom_site_fract_z
     1  N          0.81076000       0.87554000       0.06523000
     2  N          0.18924000       0.12446000       0.93477000
     3  N          0.82694000       0.47833000       0.08023000
     4  N          0.17306000       0.52167000       0.91977000
     5  C          0.91185000       0.82944000       0.07094000
     6  C          0.08815000       0.17056000       0.92906000
     7  C          0.04084000       0.77224000       0.07674000
     8  C          0.95916000       0.22776000       0.92326000
     9  C          0.04015000       0.66364000       0.15514000
    10  C          0.95985000       0.33636000       0.84486000
    11  H          0.95420000       0.62460000       0.20600000
    12  H          0.04580000       0.37540000       0.79400000
    13  C          0.16485000       0.61034000       0.16024000
    14  C          0.83515000       0.38966000       0.83976000
    15  H          0.16320000       0.53520000       0.21450000
    16  H          0.83680000       0.46480000       0.78550000
    17  C          0.29215000       0.66644000       0.08614000
    18  C          0.70785000       0.33356000       0.91386000
    19  C          0.29005000       0.77514000       0.00504000
    20  C          0.70995000       0.22486000      -0.00504000
    21  H          0.37520000       0.81320000       0.95240000
    22  H          0.62480000       0.18680000       0.04760000
    23  C          0.16585000       0.82864000      -0.00044000
    24  C          0.83415000       0.17136000       0.00044000
    25  H          0.16610000       0.90270000       0.94410000
    26  H          0.83390000       0.09730000       0.05590000
    27  C          0.42854000       0.61344000       0.09093000
    28  C          0.57146000       0.38656000       0.90907000
    29  C          0.43945000       0.49364000       0.12663000
    30  C          0.56055000       0.50636000       0.87337000
    31  H          0.35700000       0.44270000       0.15320000
    32  H          0.64300000       0.55730000       0.84680000
    33  C          0.56975000       0.44764000       0.12393000
    34  C          0.43025000       0.55236000       0.87607000
    35  H          0.57540000       0.36600000       0.14760000
    36  H          0.42460000       0.63400000       0.85240000
    37  C          0.69064000       0.52034000       0.08673000
    38  C          0.30936000       0.47966000       0.91327000
    39  C          0.68104000       0.63954000       0.05494000
    40  C          0.31896000       0.36046000       0.94506000
    41  H          0.76290000       0.68990000       0.03200000
    42  H          0.23710000       0.31010000       0.96800000
    43  C          0.55095000       0.68434000       0.05684000
    44  C          0.44905000       0.31566000       0.94316000
    45  H          0.54550000       0.76590000       0.03420000
    46  H          0.45450000       0.23410000       0.96580000
    47  C          0.86884000       0.37364000       0.14723000
    48  C          0.13116000       0.62636000       0.85277000
    49  C          0.77934000       0.29504000       0.25233000
    50  C          0.22066000       0.70496000       0.74767000
    51  C          0.69244000       0.33714000       0.32484000
    52  C          0.30756000       0.66286000       0.67516000
    53  H          0.68540000       0.41850000       0.30310000
    54  H          0.31460000       0.58150000       0.69690000
    55  C          0.61755000       0.26294000       0.42634000
    56  C          0.38245000       0.73706000       0.57366000
    57  H          0.55860000       0.29330000       0.47330000
    58  H          0.44140000       0.70670000       0.52670000
    59  C          0.62735000       0.14374000       0.46074000
    60  C          0.37265000       0.85626000       0.53926000
    61  H          0.57770000       0.09280000       0.53180000
    62  H          0.42230000       0.90720000       0.46820000
    63  C          0.71005000       0.09944000       0.39074000
    64  C          0.28995000       0.90056000       0.60926000
    65  H          0.71580000       0.01790000       0.41320000
    66  H          0.28420000       0.98210000       0.58680000
    67  C          0.78495000       0.17494000       0.28684000
    68  C          0.21505000       0.82506000       0.71316000
    69  H          0.84040000       0.14390000       0.23890000
    70  H          0.15960000       0.85610000       0.76110000
    71  C          0.94404000       0.53504000      -0.00594000
    72  C          0.05596000       0.46496000       0.00594000
    73  C         -0.00925000       0.63474000       0.89676000
    74  C          0.00925000       0.36526000       0.10324000
    75  H          0.93580000       0.69590000       0.86720000
    76  H          0.06420000       0.30410000       0.13280000
    77  C          0.99065000       0.63466000       0.89676000
    78  N          0.98856000      -0.00316000       0.18453000
    79  N          0.01144000       0.00316000       0.81547000
    80  N          0.87194000       0.59853000       0.48233000
    81  N          0.12806000       0.40147000       0.51767000
    82  C          0.09225000       0.95414000       0.19274000
    83  C          0.90775000       0.04586000       0.80726000
    84  C          0.21655000       0.89744000       0.21273000
    85  C          0.78345000       0.10256000       0.78727000
    86  C          0.20175000       0.78934000       0.29714000
    87  C          0.79825000       0.21066000       0.70286000
    88  H          0.11130000       0.75000000       0.33620000
    89  H          0.88870000       0.25000000       0.66380000
    90  C          0.31864000       0.73924000       0.32414000
    91  C          0.68136000       0.26076000       0.67586000
    92  H          0.30810000       0.66410000       0.38050000
    93  H          0.69190000       0.33590000       0.61950000
    94  C          0.45154000       0.79594000       0.27074000
    95  C          0.54846000       0.20406000       0.72926000
    96  C          0.46735000       0.90174000       0.18233000
    97  C          0.53265000       0.09826000       0.81767000
    98  H          0.55840000       0.93930000       0.14270000
    99  H          0.44160000       0.06070000       0.85730000
   100  C          0.35185000       0.95294000       0.15124000
   101  C          0.64815000       0.04706000       0.84876000
   102  H          0.36340000       0.02380000       0.08960000
   103  H          0.63660000       0.97620000       0.91040000
   104  C          0.57354000       0.74614000       0.31323000
   105  C          0.42646000       0.25386000       0.68677000
   106  C          0.58395000       0.62554000       0.35733000
   107  C          0.41605000       0.37446000       0.64267000
   108  H          0.52260000       0.57550000       0.34950000
   109  H          0.47740000       0.42450000       0.65050000
   110  C          0.68234000       0.57864000       0.41183000
   111  C          0.31766000       0.42136000       0.58817000
   112  H          0.68730000       0.49680000       0.44140000
   113  H          0.31270000       0.50320000       0.55860000
   114  C          0.77294000       0.64934000       0.42353000
   115  C          0.22706000       0.35066000       0.57647000
   116  C          0.77154000       0.76964000       0.37443000
   117  C          0.22846000       0.23036000       0.62557000
   118  H          0.83860000       0.81950000       0.37680000
   119  H          0.16140000       0.18050000       0.62320000
   120  C          0.66924000       0.81564000       0.32133000
   121  C          0.33076000       0.18436000       0.67867000
   122  H          0.66600000       0.89760000       0.28990000
   123  H          0.33400000       0.10240000       0.71010000
   124  C          0.96474000       0.42474000       0.42643000
   125  C          0.03526000       0.57526000       0.57357000
   126  H          0.90950000       0.41480000       0.38490000
   127  H          0.09050000       0.58520000       0.61510000
   128  C          0.95084000       0.50784000       0.47263000
   129  C          0.04916000       0.49216000       0.52737000
   130  C          0.92574000       0.63864000       0.54613000
   131  C          0.07426000       0.36136000       0.45387000
   132  C          0.86294000       0.72934000       0.58303000
   133  C          0.13706000       0.27066000       0.41697000
   134  C          0.71785000       0.73244000       0.61884000
   135  C          0.28215000       0.26756000       0.38116000
   136  H          0.65710000       0.67800000       0.61600000
   137  H          0.34290000       0.32200000       0.38400000
   138  C          0.66125000       0.81434000       0.65864000
   139  C          0.33875000       0.18566000       0.34136000
   140  H          0.56240000       0.81640000       0.68250000
   141  H          0.43760000       0.18360000       0.31750000
   142  C          0.75106000       0.89335000       0.66314000
   143  C          0.24894000       0.10665000       0.33686000
   144  H          0.71330000       0.94980000       0.68960000
   145  H          0.28670000       0.05020000       0.31040000
   146  C          0.89336000       0.88995000       0.62934000
   147  C          0.10664000       0.11005000       0.37066000
   148  H          0.95370000       0.94370000       0.63320000
   149  H          0.04630000       0.05630000       0.36680000
   150  C          0.95045000       0.80794000       0.58934000
   151  C          0.04955000       0.19206000       0.41066000
   152  H          0.04920000       0.80590000       0.56640000
   153  H          0.95080000       0.19410000       0.43360000
