data_JEGGEK02
_symmetry_space_group_name_H-M    'P1'
_symmetry_Int_Tables_number       1
loop_
_symmetry_equiv_pos_site_id
_symmetry_equiv_pos_as_xyz
1 x,y,z
_cell_length_a                   11.2332
_cell_length_b                   11.5992
_cell_length_c                   13.2613
_cell_angle_alpha                80.563
_cell_angle_beta                 84.203
_cell_angle_gamma                72.853
loop_
_atom_site_label
_atom_site_type_symbol
_atom_site_fract_x
_atom_site_fract_y
_atom_site_fract_z
     1  N          0.36752900       0.51260900       0.87415700
     2  N          0.63247100       0.48739100       0.12584300
     3  N          0.57479100       0.54982900       0.66822700
     4  N          0.42520900       0.45017100       0.33177300
     5  N          0.15943120       0.91478880       0.56896900
     6  N          0.84056880       0.08521120       0.43103100
     7  N          0.69165110       0.10105110       0.91752100
     8  N          0.30834890       0.89894890       0.08247900
     9  C          0.29352110       0.62856110       0.83334900
    10  C          0.70647890       0.37143890       0.16665100
    11  C          0.35277120       0.66946110       0.74347900
    12  C          0.64722880       0.33053890       0.25652100
    13  H          0.32270000       0.74360000       0.69910000
    14  H          0.67730000       0.25640000       0.30090000
    15  C          0.46684110       0.57858110       0.73147900
    16  C          0.53315890       0.42141890       0.26852100
    17  C          0.47487110       0.48381110       0.81041900
    18  C          0.52512890       0.51618890       0.18958100
    19  C          0.58789110       0.39167110       0.79709900
    20  C          0.41210890       0.60832890       0.20290100
    21  H          0.61620000       0.31570000       0.83960000
    22  H          0.38380000       0.68430000       0.16040000
    23  C          0.64862120       0.43467110       0.70962900
    24  C          0.35137880       0.56532890       0.29037100
    25  C          0.18517110       0.70176110       0.88925900
    26  C          0.81482890       0.29823890       0.11074100
    27  C          0.09460120       0.79325110       0.83411100
    28  C          0.90539880       0.20674890       0.16588900
    29  H          0.09960000       0.80190000       0.76140000
    30  H          0.90040000       0.19810000       0.23860000
    31  C         -0.00266120       0.87160120       0.88447110
    32  C          0.00266120       0.12839880       0.11552890
    33  H          0.93730000       0.93430000       0.84600000
    34  H          0.06270000       0.06570000       0.15400000
    35  C          0.98758870       0.85874130      -0.00999890
    36  C          0.01241130       0.14125870       0.00999890
    37  H          0.92040000       0.91180000       0.02420000
    38  H          0.07960000       0.08820000       0.97580000
    39  C          0.07583130       0.76844130       0.04574110
    40  C          0.92416870       0.23155870       0.95425890
    41  H          0.06880000       0.75900000       0.11840000
    42  H          0.93120000       0.24100000       0.88160000
    43  C          0.17461120       0.69143120      -0.00392900
    44  C          0.82538880       0.30856880       0.00392900
    45  H          0.23590000       0.63090000       0.03510000
    46  H          0.76410000       0.36910000       0.96490000
    47  C          0.77824120       0.38032120       0.67390900
    48  C          0.22175880       0.61967880       0.32609100
    49  C          0.82495120       0.25367120       0.68228100
    50  C          0.17504880       0.74632880       0.31771900
    51  H          0.77060000       0.20450000       0.70540000
    52  H          0.22940000       0.79550000       0.29460000
    53  C          0.94907140       0.19869140       0.65745100
    54  C          0.05092860       0.80130860       0.34254900
    55  H          0.97930000       0.11240000       0.66360000
    56  H          0.02070000       0.88760000       0.33640000
    57  C          0.02938140       0.26905150       0.62365110
    58  C          0.97061860       0.73094850       0.37634890
    59  H          0.11470000       0.23130000       0.60650000
    60  H          0.88530000       0.76870000       0.39350000
    61  C          0.98491140       0.39452150       0.61503110
    62  C          0.01508860       0.60547850       0.38496890
    63  H          0.04000000       0.44290000       0.59190000
    64  H          0.96000000       0.55710000       0.40810000
    65  C          0.86028130       0.45056130       0.63984100
    66  C          0.13971870       0.54943870       0.36015900
    67  H          0.83070000       0.53690000       0.63360000
    68  H          0.16930000       0.46310000       0.36640000
    69  C          0.33781110       0.43197110       0.95942900
    70  C          0.66218890       0.56802890       0.04057100
    71  C          0.21789120       0.41923110       0.97790900
    72  C          0.78210880       0.58076890       0.02209100
    73  H          0.15520000       0.46150000       0.93130000
    74  H          0.84480000       0.53850000       0.06870000
    75  C          0.18994120       0.34490110       0.06436900
    76  C          0.81005880       0.65509890       0.93563100
    77  H          0.10710000       0.33900000       0.07800000
    78  H          0.89290000       0.66100000       0.92200000
    79  C          0.28205120       0.27835110       0.13187900
    80  C          0.71794880       0.72164890       0.86812100
    81  C          0.40311120       0.28783110       0.10941900
    82  C          0.59688880       0.71216890       0.89058100
    83  H          0.46750000       0.24090000       0.15300000
    84  H          0.53250000       0.75910000       0.84700000
    85  C          0.43113120       0.36484110       0.02432900
    86  C          0.56886880       0.63515890       0.97567100
    87  H          0.51370000       0.37150000       0.01070000
    88  H          0.48630000       0.62850000       0.98930000
    89  C          0.25309120       0.19877110       0.22493900
    90  C          0.74690880       0.80122890       0.77506100
    91  C          0.14502120       0.23819120       0.28684900
    92  C          0.85497880       0.76180880       0.71315100
    93  H          0.08890000       0.31650000       0.26840000
    94  H          0.91110000       0.68350000       0.73160000
    95  C          0.11832120       0.16506120       0.37463900
    96  C          0.88167880       0.83493880       0.62536100
    97  H          0.04460000       0.19300000       0.41620000
    98  H          0.95540000       0.80700000       0.58380000
    99  C          0.20066120       0.05006120       0.40135900
   100  C          0.79933880       0.94993880       0.59864100
   101  C          0.30860120       0.00856120       0.33972900
   102  C          0.69139880      -0.00856120       0.66027100
   103  H          0.36410000       0.92980000       0.35760000
   104  H          0.63590000       0.07020000       0.64240000
   105  C          0.33404120       0.08293120       0.25262900
   106  C          0.66595880       0.91706880       0.74737100
   107  H          0.40770000       0.05490000       0.21100000
   108  H          0.59230000       0.94510000       0.78900000
   109  C          0.17637130       0.97417870       0.49410100
   110  C          0.82362870       0.02582130       0.50589900
   111  C          0.59366110       0.62048110       0.57278900
   112  C          0.40633890       0.37951890       0.42721100
   113  C          0.57324120       0.74502110       0.56810900
   114  C          0.42675880       0.25497890       0.43189100
   115  H          0.54840000       0.78210000       0.62860000
   116  H          0.45160000       0.21790000       0.37140000
   117  C          0.58890120       0.81554110       0.47567900
   118  C          0.41109880       0.18445890       0.52432100
   119  H          0.57520000       0.90070000       0.47350000
   120  H          0.42480000       0.09930000       0.52650000
   121  C          0.62458110       0.76368110       0.38537900
   122  C          0.37541890       0.23631890       0.61462100
   123  C          0.64553120       0.63784110       0.39165900
   124  C          0.35446880       0.36215890       0.60834100
   125  H          0.67100000       0.60040000       0.33140000
   126  H          0.32900000       0.39960000       0.66860000
   127  C          0.62989120       0.56640110       0.48402900
   128  C          0.37010880       0.43359890       0.51597100
   129  H          0.64380000       0.48110000       0.48670000
   130  H          0.35620000       0.51890000       0.51330000
   131  C          0.63867110       0.83971110       0.28569900
   132  C          0.36132890       0.16028890       0.71430100
   133  C          0.68128120       0.94252110       0.27837100
   134  C          0.31871880       0.05747890       0.72162900
   135  H          0.70130000       0.96530000       0.33880000
   136  H          0.29870000       0.03470000       0.66120000
   137  C          0.69490120       0.01189120       0.18488100
   138  C          0.30509880       0.98810880       0.81511900
   139  H          0.72460000       0.08120000       0.18110000
   140  H          0.27540000       0.91880000       0.81890000
   141  C          0.66455110       0.97906110       0.09601900
   142  C          0.33544890       0.02093890       0.90398100
   143  C          0.62146120       0.87752110       0.10206900
   144  C          0.37853880       0.12247890       0.89793100
   145  H          0.60120000       0.85490000       0.04170000
   146  H          0.39880000       0.14510000       0.95830000
   147  C          0.60805120       0.80916110       0.19615900
   148  C          0.39194880       0.19083890       0.80384100
   149  H          0.57750000       0.74030000       0.19980000
   150  H          0.42250000       0.25970000       0.80020000
   151  C          0.67950120       0.04857110      -0.00252100
   152  C          0.32049880       0.95142890       0.00252100
