data_JEGGEK
_symmetry_space_group_name_H-M    'P1'
_symmetry_Int_Tables_number       1
loop_
_symmetry_equiv_pos_site_id
_symmetry_equiv_pos_as_xyz
1 x,y,z
_cell_length_a                   9.91114
_cell_length_b                   12.55209
_cell_length_c                   14.05908
_cell_angle_alpha                66.6326
_cell_angle_beta                 74.1174
_cell_angle_gamma                88.0724
loop_
_atom_site_label
_atom_site_type_symbol
_atom_site_fract_x
_atom_site_fract_y
_atom_site_fract_z
     1  C          0.77122000       0.26942000       0.37380170
     2  C          0.22878000       0.73058000       0.62619830
     3  H          0.83800000       0.31940000       0.37720000
     4  H          0.16200000       0.68060000       0.62280000
     5  C          0.09172000       0.45422000       0.19204180
     6  C          0.90828000       0.54578000       0.80795820
     7  N          0.98844810       0.49682000       0.18446160
     8  N          0.01155190       0.50318000       0.81553840
     9  N          0.87183160       0.09804180       0.48267140
    10  N          0.12816840       0.90195820       0.51732860
    11  C          0.66252000       0.31542000       0.65802180
    12  C          0.33748000       0.68458000       0.34197820
    13  H          0.56340000       0.31760000       0.68110000
    14  H          0.43660000       0.68240000       0.31890000
    15  C          0.03522000       0.07542000       0.57390170
    16  C          0.96478000       0.92458000       0.42609830
    17  H          0.09030000       0.08490000       0.61610000
    18  H          0.90970000       0.91510000       0.38390000
    19  C          0.45272000       0.29522000       0.26910170
    20  C          0.54728000       0.70478000       0.73089830
    21  C          0.92562000       0.13922000       0.54629170
    22  C          0.07438000       0.86078000       0.45370830
    23  C          0.57242000       0.24432000       0.31270170
    24  C          0.42758000       0.75568000       0.68729830
    25  C          0.71762000       0.23302000       0.61936170
    26  C          0.28238000       0.76698000       0.38063830
    27  H          0.65560000       0.17850000       0.61720000
    28  H          0.34440000       0.82150000       0.38280000
    29  C          0.67142000       0.31652000       0.31957170
    30  C          0.32858000       0.68348000       0.68042830
    31  H          0.66990000       0.39860000       0.28660000
    32  H          0.33010000       0.60140000       0.71340000
    33  C          0.35162000       0.45342000       0.15182180
    34  C          0.64838000       0.54658000       0.84817820
    35  H          0.36290000       0.52610000       0.09170000
    36  H          0.63710000       0.47390000       0.90830000
    37  C          0.31862000       0.23752000       0.32302180
    38  C          0.68138000       0.76248000       0.67697820
    39  H          0.30810000       0.16170000       0.37890000
    40  H          0.69190000       0.83830000       0.62110000
    41  C          0.95044190       0.00662000       0.47249170
    42  C          0.04955810       0.99338000       0.52750830
    43  C          0.68076190       0.07872000       0.41084170
    44  C          0.31923810       0.92128000       0.58915830
    45  H          0.68510000      -0.00340000       0.44060000
    46  H          0.31490000       0.00340000       0.55940000
    47  C          0.75092000       0.39482000       0.66341190
    48  C          0.24908000       0.60518000       0.33658810
    49  H          0.71290000       0.45110000       0.69040000
    50  H          0.28710000       0.54890000       0.30960000
    51  C          0.86282000       0.22862000       0.58345170
    52  C          0.13718000       0.77138000       0.41654830
    53  C          0.46662000       0.40292000       0.18121180
    54  C          0.53338000       0.59708000       0.81878820
    55  H          0.55770000       0.44160000       0.14120000
    56  H          0.44230000       0.55840000       0.85880000
    57  C          0.95162000       0.30902000       0.58905180
    58  C          0.04838000       0.69098000       0.41094820
    59  H          0.05080000       0.30760000       0.56550000
    60  H          0.94920000       0.69240000       0.43450000
    61  C          0.89502000       0.39122000       0.62900190
    62  C          0.10498000       0.60878000       0.37099810
    63  H          0.95610000       0.44530000       0.63260000
    64  H          0.04390000       0.55470000       0.36740000
    65  C          0.58282000       0.12512000       0.35620170
    66  C          0.41718000       0.87488000       0.64379830
    67  H          0.52130000       0.07490000       0.34810000
    68  H          0.47870000       0.92510000       0.65190000
    69  C          0.21642000       0.39662000       0.21151180
    70  C          0.78358000       0.60338000       0.78848820
    71  C          0.77342000       0.14902000       0.42336170
    72  C          0.22658000       0.85098000       0.57663830
    73  C          0.19962000       0.28902000       0.29641180
    74  C          0.80038000       0.71098000       0.70358820
    75  H          0.10840000       0.25050000       0.33620000
    76  H          0.89160000       0.74950000       0.66380000
    77  C          0.31922000       0.86138000       0.94547180
    78  C          0.68078000       0.13862000       0.05452820
    79  H          0.23620000       0.81100000       0.96970000
    80  H          0.76380000       0.18900000       0.03030000
    81  C          0.57202000       0.88698000       0.90901170
    82  C          0.42798000       0.11302000       0.09098830
    83  C          0.30992000       0.98028000       0.91236170
    84  C          0.69008000       0.01972000       0.08763830
    85  C          0.56102000       0.00682000       0.87328170
    86  C          0.43898000       0.99318000       0.12671830
    87  H          0.64410000       0.05770000       0.84680000
    88  H          0.35590000       0.94230000       0.15320000
    89  C          0.43172000       0.05392000       0.87532170
    90  C          0.56828000       0.94608000       0.12467830
    91  H          0.42670000       0.13580000       0.85160000
    92  H          0.57330000       0.86420000       0.14840000
    93  N          0.17308160       0.02201180       0.91998140
    94  N          0.82691840       0.97798820       0.08001860
    95  C          0.08802000       0.66938000       0.92963180
    96  C          0.91198000       0.33062000       0.07036820
    97  N          0.19003190       0.62457810       0.93478160
    98  N          0.80996810       0.37542190       0.06521840
    99  C          0.05469190       0.96498000       0.00696180
   100  C          0.94530810       0.03502000      -0.00696180
   101  C          0.83282000       0.67068000       0.00149180
   102  C          0.16718000       0.32932000      -0.00149180
   103  H          0.83140000       0.59600000       0.05700000
   104  H          0.16860000       0.40400000       0.94300000
   105  C          0.83612000       0.89018000       0.83974180
   106  C          0.16388000       0.10982000       0.16025820
   107  H          0.83820000       0.96550000       0.78500000
   108  H          0.16180000       0.03450000       0.21500000
   109  C          0.22252000       0.20572000       0.74682170
   110  C          0.77748000       0.79428000       0.25317830
   111  C          0.44862000       0.81508000       0.94368180
   112  C          0.55138000       0.18492000       0.05631820
   113  H          0.45320000       0.73330000       0.96640000
   114  H          0.54680000       0.26670000       0.03360000
   115  C          0.37462000       0.35772000       0.53794190
   116  C          0.62538000       0.64228000       0.46205810
   117  H          0.42550000       0.40900000       0.46690000
   118  H          0.57450000       0.59100000       0.53310000
   119  C          0.13192000       0.12682000       0.85268170
   120  C          0.86808000       0.87318000       0.14731830
   121  C          0.30852000       0.16272000       0.67485170
   122  C          0.69148000       0.83728000       0.32514830
   123  H          0.31490000       0.08120000       0.69680000
   124  H          0.68510000       0.91880000       0.30320000
   125  C         -0.00902000       0.13552000       0.89648180
   126  C          0.00902000       0.86448000       0.10351820
   127  H          0.93610000       0.19700000       0.86730000
   128  H          0.06390000       0.80300000       0.13270000
   129  C          0.38402000       0.23862000       0.57189180
   130  C          0.61598000       0.76138000       0.42810820
   131  H          0.44280000       0.20870000       0.52420000
   132  H          0.55720000       0.79130000       0.47580000
   133  C          0.29022000       0.40192000       0.60849190
   134  C          0.70978000       0.59808000       0.39150810
   135  H          0.28380000       0.48350000       0.58580000
   136  H          0.71620000       0.51650000       0.41420000
   137  C          0.21562000       0.32652000       0.71207180
   138  C          0.78438000       0.67348000       0.28792820
   139  H          0.15900000       0.35710000       0.76010000
   140  H          0.84100000       0.64290000       0.23990000
   141  C          0.70952000       0.72448000      -0.00387820
   142  C          0.29048000       0.27552000       0.00387820
   143  H          0.62380000       0.68620000       0.04890000
   144  H          0.37620000       0.31380000       0.95110000
   145  C          0.95932000       0.72688000       0.92476180
   146  C          0.04068000       0.27312000       0.07523820
   147  C          0.96032000       0.83668000       0.84483190
   148  C          0.03968000       0.16332000       0.15516810
   149  H          0.04660000       0.87550000       0.79330000
   150  H          0.95340000       0.12450000       0.20670000
   151  C          0.70792000       0.83428000       0.91453180
   152  C          0.29208000       0.16572000       0.08546820
