data_JIGKES01
_symmetry_space_group_name_H-M    'P1'
_symmetry_Int_Tables_number       1
loop_
_symmetry_equiv_pos_site_id
_symmetry_equiv_pos_as_xyz
1 x,y,z
_cell_length_a                   18.14758
_cell_length_b                   5.13542
_cell_length_c                   20.43358
_cell_angle_alpha                90.0
_cell_angle_beta                 99.5082
_cell_angle_gamma                90.0
loop_
_atom_site_label
_atom_site_type_symbol
_atom_site_fract_x
_atom_site_fract_y
_atom_site_fract_z
     1  S          0.19370300       0.58933900       0.34690300
     2  S          0.80629700       0.08933900       0.15309700
     3  S          0.80629700       0.41066100       0.65309700
     4  S          0.19370300       0.91066100       0.84690300
     5  O          0.32738100       0.44483000       0.14971800
     6  O          0.67261900       0.94483000       0.35028200
     7  O          0.67261900       0.55517000       0.85028200
     8  O          0.32738100       0.05517000       0.64971800
     9  O          0.24230900       0.50527000       0.40536800
    10  O          0.75769100       0.00527000       0.09463200
    11  O          0.75769100       0.49473000       0.59463200
    12  O          0.24230900      -0.00527000       0.90536800
    13  O          0.15888900       0.40257000       0.29978800
    14  O          0.84111100       0.90257000       0.20021200
    15  O          0.84111100       0.59743000       0.70021200
    16  O          0.15888900       0.09743000       0.79978800
    17  O          0.41035100       0.51074000       0.24113900
    18  O          0.58964900       0.01074000       0.25886100
    19  O          0.58964900       0.48926000       0.75886100
    20  O          0.41035100      -0.01074000       0.74113900
    21  N          0.12714100       0.75466000       0.37152900
    22  N          0.87285900       0.25466000       0.12847100
    23  N          0.87285900       0.24534000       0.62847100
    24  N          0.12714100       0.74534000       0.87152900
    25  C          0.35730120       0.39514000       0.21137110
    26  C          0.64269880       0.89514000       0.28862890
    27  C          0.64269880       0.60486000       0.78862890
    28  C          0.35730120       0.10486000       0.71137110
    29  C          0.24499110       0.80836000       0.30493100
    30  C          0.75500890       0.30836000       0.19506900
    31  C          0.75500890       0.19164000       0.69506900
    32  C          0.24499110       0.69164000       0.80493100
    33  C          0.30700120       0.93486000       0.34008110
    34  C          0.69299880       0.43486000       0.15991890
    35  C          0.69299880       0.06514000       0.65991890
    36  C          0.30700120       0.56514000       0.84008110
    37  H          0.32390000       0.89440000       0.38440000
    38  H          0.67610000       0.39440000       0.11560000
    39  H          0.67610000       0.10560000       0.61560000
    40  H          0.32390000       0.60560000       0.88440000
    41  C          0.31828110       0.18194000       0.24235100
    42  C          0.68171890       0.68194000       0.25764900
    43  C          0.68171890       0.81806000       0.75764900
    44  C          0.31828110       0.31806000       0.74235100
    45  C          0.25756120       0.04934000       0.20723110
    46  C          0.74243880       0.54934000       0.29276890
    47  C          0.74243880       0.95066000       0.79276890
    48  C          0.25756120       0.45066000       0.70723110
    49  H          0.24140000       0.08710000       0.16270000
    50  H          0.75860000       0.58710000       0.33730000
    51  H          0.75860000       0.91290000       0.83730000
    52  H          0.24140000       0.41290000       0.66270000
    53  C          0.34299120       0.12084000       0.30834110
    54  C          0.65700880       0.62084000       0.19165890
    55  C          0.65700880       0.87916000       0.69165890
    56  C          0.34299120       0.37916000       0.80834110
    57  H          0.38440000       0.20640000       0.33150000
    58  H          0.61560000       0.70640000       0.16850000
    59  H          0.61560000       0.79360000       0.66850000
    60  H          0.38440000       0.29360000       0.83150000
    61  C          0.22115120       0.86156000       0.23837110
    62  C          0.77884880       0.36156000       0.26162890
    63  C          0.77884880       0.13844000       0.76162890
    64  C          0.22115120       0.63844000       0.73837110
    65  H          0.18090000       0.77150000       0.21480000
    66  H          0.81910000       0.27150000       0.28520000
    67  H          0.81910000       0.22850000       0.78520000
    68  H          0.18090000       0.72850000       0.71480000
    69  C          0.14871140       0.93866000       0.42656120
    70  C          0.85128860       0.43866000       0.07343880
    71  C          0.85128860       0.06134000       0.57343880
    72  C          0.14871140       0.56134000       0.92656120
    73  H          0.12020000       0.09790000       0.41710000
    74  H          0.87980000       0.59790000       0.08290000
    75  H          0.87980000       0.90210000       0.58290000
    76  H          0.12020000       0.40210000       0.91710000
    77  H          0.20110000      -0.01800000       0.42910000
    78  H          0.79890000       0.48200000       0.07090000
    79  H          0.79890000       0.01800000       0.57090000
    80  H          0.20110000       0.51800000       0.92910000
    81  C          0.98897870       0.79595000       0.34988140
    82  C          0.01102130       0.29595000       0.15011860
    83  C          0.01102130       0.20405000       0.65011860
    84  C          0.98897870       0.70405000       0.84988140
    85  H          0.99050000       0.91060000       0.38780000
    86  H          0.00950000       0.41060000       0.11220000
    87  H          0.00950000       0.08940000       0.61220000
    88  H          0.99050000       0.58940000       0.88780000
    89  H          0.94770000       0.85120000       0.31630000
    90  H          0.05230000       0.35120000       0.18370000
    91  H          0.05230000       0.14880000       0.68370000
    92  H          0.94770000       0.64880000       0.81630000
    93  C          0.06111130       0.82515000       0.32249120
    94  C          0.93888870       0.32515000       0.17750880
    95  C          0.93888870       0.17485000       0.67750880
    96  C          0.06111130       0.67485000       0.82249120
    97  H          0.05920000       0.71510000       0.28370000
    98  H          0.94080000       0.21510000       0.21630000
    99  H          0.94080000       0.28490000       0.71630000
   100  H          0.05920000       0.78490000       0.78370000
   101  H          0.06600000       0.00420000       0.30870000
   102  H          0.93400000       0.50420000       0.19130000
   103  H          0.93400000      -0.00420000       0.69130000
   104  H          0.06600000       0.49580000       0.80870000
   105  C          0.13630170       0.83464000       0.49314120
   106  C          0.86369830       0.33464000       0.00685880
   107  C          0.86369830       0.16536000       0.50685880
   108  C          0.13630170       0.66536000      -0.00685880
   109  H          0.08360000       0.79690000       0.49140000
   110  H          0.91640000       0.29690000       0.00860000
   111  H          0.91640000       0.20310000       0.50860000
   112  H          0.08360000       0.70310000       0.99140000
   113  H          0.16380000       0.67340000       0.50250000
   114  H          0.83620000       0.17340000      -0.00250000
   115  H          0.83620000       0.32660000       0.49750000
   116  H          0.16380000       0.82660000       0.00250000
   117  C          0.97449850       0.52155000       0.37084150
   118  C          0.02550150       0.02155000       0.12915850
   119  C          0.02550150       0.47845000       0.62915850
   120  C          0.97449850      -0.02155000       0.87084150
   121  H          0.97800000       0.40410000       0.33490000
   122  H          0.02200000       0.90410000       0.16510000
   123  H          0.02200000       0.59590000       0.66510000
   124  H          0.97800000       0.09590000       0.83490000
   125  H          0.92540000       0.51120000       0.38230000
   126  H          0.07460000       0.01120000       0.11770000
   127  H          0.07460000       0.48880000       0.61770000
   128  H          0.92540000      -0.01120000       0.88230000
   129  H          0.01090000       0.47480000       0.40860000
   130  H          0.98910000      -0.02520000       0.09140000
   131  H          0.98910000       0.52520000       0.59140000
   132  H          0.01090000       0.02520000       0.90860000
   133  C          0.16132000       0.02718000       0.54809160
   134  C          0.83868000       0.52718000       0.95190840
   135  C          0.83868000      -0.02718000       0.45190840
   136  C          0.16132000       0.47282000       0.04809160
   137  H          0.13340000       0.18570000       0.53940000
   138  H          0.86660000       0.68570000       0.96060000
   139  H          0.86660000       0.81430000       0.46060000
   140  H          0.13340000       0.31430000       0.03940000
   141  H          0.21350000       0.06280000       0.55030000
   142  H          0.78650000       0.56280000       0.94970000
   143  H          0.78650000       0.93720000       0.44970000
   144  H          0.21350000       0.43720000       0.05030000
   145  H          0.15280000       0.95520000       0.58960000
   146  H          0.84720000       0.45520000       0.91040000
   147  H          0.84720000       0.04480000       0.41040000
   148  H          0.15280000       0.54480000       0.08960000
   149  H          0.35151900       0.58570000       0.13521700
   150  H          0.64848100       0.08570000       0.36478300
   151  H          0.64848100       0.41430000       0.86478300
   152  H          0.35151900       0.91430000       0.63521700
   153  N          0.48777120       0.95936000       0.47205100
   154  N          0.51222880       0.45936000       0.02794900
   155  N          0.51222880       0.04064000       0.52794900
   156  N          0.48777120       0.54064000       0.97205100
   157  N          0.60813110       0.34966000       0.40079900
   158  N          0.39186890       0.84966000       0.09920100
   159  N          0.39186890       0.65034000       0.59920100
   160  N          0.60813110       0.15034000       0.90079900
   161  C          0.53308130       0.75366000       0.45081120
   162  C          0.46691870       0.25366000       0.04918880
   163  C          0.46691870       0.24634000       0.54918880
   164  C          0.53308130       0.74634000       0.95081120
   165  C          0.50725130       0.65335000       0.38854120
   166  C          0.49274870       0.15335000       0.11145880
   167  C          0.49274870       0.34665000       0.61145880
   168  C          0.50725130       0.84665000       0.88854120
   169  H          0.46450000       0.72020000       0.36260000
   170  H          0.53550000       0.22020000       0.13740000
   171  H          0.53550000       0.27980000       0.63740000
   172  H          0.46450000       0.77980000       0.86260000
   173  C          0.59771140       0.65235000       0.48764120
   174  C          0.40228860       0.15235000       0.01235880
   175  C          0.40228860       0.34765000       0.51235880
   176  C          0.59771140       0.84765000       0.98764120
   177  H          0.61670000       0.71840000       0.52940000
   178  H          0.38330000       0.21840000       0.97060000
   179  H          0.38330000       0.28160000       0.47060000
   180  H          0.61670000       0.78160000       0.02940000
   181  C          0.54642130       0.45165000       0.36572120
   182  C          0.45357870       0.95165000       0.13427880
   183  C          0.45357870       0.54835000       0.63427880
   184  C          0.54642130       0.04835000       0.86572120
   185  H          0.52890000       0.38370000       0.32380000
   186  H          0.47110000       0.88370000       0.17620000
   187  H          0.47110000       0.61630000       0.67620000
   188  H          0.52890000       0.11630000       0.82380000
   189  C          0.63301140       0.45115000       0.46063120
   190  C          0.36698860       0.95115000       0.03936880
   191  C          0.36698860       0.54885000       0.53936880
   192  C          0.63301140       0.04885000       0.96063120
   193  H          0.67630000       0.38260000       0.48530000
   194  H          0.32370000       0.88260000       0.01470000
   195  H          0.32370000       0.61740000       0.51470000
   196  H          0.67630000       0.11740000       0.98530000
