data_JIGKES04
_symmetry_space_group_name_H-M    'P1'
_symmetry_Int_Tables_number       1
loop_
_symmetry_equiv_pos_site_id
_symmetry_equiv_pos_as_xyz
1 x,y,z
_cell_length_a                   19.0933
_cell_length_b                   5.21869
_cell_length_c                   19.8594
_cell_angle_alpha                93.45911
_cell_angle_beta                 99.19112
_cell_angle_gamma                93.51111
loop_
_atom_site_label
_atom_site_type_symbol
_atom_site_fract_x
_atom_site_fract_y
_atom_site_fract_z
     1  S          0.30126100       0.13023000       0.64521100
     2  S          0.69873900       0.86977000       0.35478900
     3  O          0.33463000       0.96531000       0.69363000
     4  O          0.66537000       0.03469000       0.30637000
     5  O          0.25493000       0.02201000       0.58573000
     6  O          0.74507000      -0.02201000       0.41427000
     7  O          0.09943000       0.01911200       0.75903000
     8  O          0.90057000      -0.01911200       0.24097000
     9  N          0.36433000       0.29801100       0.61983000
    10  N          0.63567000       0.70198900       0.38017000
    11  C          0.27644000       0.41441500       0.75894000
    12  C          0.72356000       0.58558500       0.24106000
    13  H          0.31404000       0.33711500       0.78354000
    14  H          0.68596000       0.66288500       0.21646000
    15  O          0.17813000      -0.01688900       0.85333000
    16  O          0.82187000       0.01688900       0.14667000
    17  H          0.16340000       0.11710000       0.86691600
    18  H          0.83660000       0.88290000       0.13308400
    19  C          0.14864000       0.92221500       0.78854000
    20  C          0.85136000       0.07778500       0.21146000
    21  C          0.25444000       0.34281200       0.68904000
    22  C          0.74556000       0.65718800       0.31096000
    23  C          0.24254000       0.59701400       0.79104000
    24  C          0.75746000       0.40298600       0.20896000
    25  H          0.25764000       0.64351400       0.83724000
    26  H          0.74236000       0.35648600       0.16276000
    27  C          0.18634000       0.71341200       0.75574000
    28  C          0.81366000       0.28658800       0.24426000
    29  C          0.16314000       0.63961400       0.68764000
    30  C          0.83686000       0.36038600       0.31236000
    31  H          0.12474000       0.71511400       0.66374000
    32  H          0.87526000       0.28488600       0.33626000
    33  C          0.19644000       0.45511400       0.65454000
    34  C          0.80356000       0.54488600       0.34546000
    35  H          0.17984000       0.40521400       0.60874000
    36  H          0.82016000       0.59478600       0.39126000
    37  C          0.34415000       0.45671600       0.56104000
    38  C          0.65585000       0.54328400       0.43896000
    39  H          0.29365000       0.48121600       0.55574000
    40  H          0.70635000       0.51878400       0.44426000
    41  H          0.36985000       0.62461600       0.56994000
    42  H          0.63015000       0.37538400       0.43006000
    43  C          0.42525000       0.40621700       0.67015000
    44  C          0.57475000       0.59378300       0.32985000
    45  H          0.41935000       0.58741700       0.67975000
    46  H          0.58065000       0.41258300       0.32025000
    47  H          0.42445000       0.32221700       0.71235000
    48  H          0.57555000       0.67778300       0.28765000
    49  C          0.49735000       0.38120000       0.64916000
    50  C          0.50265000       0.61880000       0.35084000
    51  H          0.49885000       0.46820000       0.60766000
    52  H          0.50115000       0.53180000       0.39234000
    53  H          0.53355000       0.46720000       0.68466000
    54  H          0.46645000       0.53280000       0.31534000
    55  C          0.51466000       0.11120000       0.63738000
    56  C          0.48534000       0.88880000       0.36262000
    57  H          0.48940000       0.04060000       0.59420000
    58  H          0.51060000       0.95940000       0.40580000
    59  H          0.56471000       0.10630000       0.63750000
    60  H          0.43529000       0.89370000       0.36250000
    61  H          0.50150000       0.01250000       0.67330000
    62  H          0.49850000      -0.01250000       0.32670000
    63  C          0.36137000       0.32530000       0.49455000
    64  C          0.63863000       0.67470000       0.50545000
    65  H          0.41207000       0.30530000       0.49975000
    66  H          0.58793000       0.69470000       0.50025000
    67  H          0.33697000       0.15430000       0.48685000
    68  H          0.66303000       0.84570000       0.51315000
    69  C          0.34118000       0.46440000       0.43807000
    70  C          0.65882000       0.53560000       0.56193000
    71  H          0.34580000       0.36212000       0.39708000
    72  H          0.65420000       0.63788000       0.60292000
    73  H          0.29330000       0.51300000       0.43750000
    74  H          0.70670000       0.48700000       0.56250000
    75  H          0.37160000       0.61916000       0.44140000
    76  H          0.62840000       0.38084000       0.55860000
    77  S          0.69236110       0.63653000       0.84482100
    78  S          0.30763890       0.36347000       0.15517900
    79  O          0.74153000       0.49301000       0.88743000
    80  O          0.25847000       0.50699000       0.11257000
    81  N          0.65213000       0.80641100       0.89463000
    82  N          0.34787000       0.19358900       0.10537000
    83  O          0.63933000       0.50561000       0.79423000
    84  O          0.36067000       0.49439000       0.20577000
    85  O          0.82873000       0.49251100       0.65703000
    86  O          0.17127000       0.50748900       0.34297000
    87  H          0.85030000       0.62311000       0.64730000
    88  H          0.14970000       0.37689000       0.35270000
    89  C          0.82054000       0.20871300       0.74363000
    90  C          0.17946000       0.79128700       0.25637000
    91  C          0.74304000       0.84791300       0.80304000
    92  C          0.25696000       0.15208700       0.19696000
    93  C          0.81364000       0.92471400       0.83184000
    94  C          0.18636000       0.07528600       0.16816000
    95  H          0.83474000       0.85451400       0.87134000
    96  H          0.16526000       0.14548600       0.12866000
    97  C          0.86294000       0.41451400       0.71304000
    98  C          0.13706000       0.58548600       0.28696000
    99  O          0.92303000       0.49181200       0.73893000
   100  O          0.07697000       0.50818800       0.26107000
   101  C          0.75154000       0.13261400       0.71444000
   102  C          0.24846000       0.86738600       0.28556000
   103  H          0.73094000       0.20331400       0.67484000
   104  H          0.26906000       0.79668600       0.32516000
   105  C          0.71234000       0.94911400       0.74434000
   106  C          0.28766000       0.05088600       0.25566000
   107  H          0.66584000       0.89621400       0.72464000
   108  H          0.33416000       0.10378600       0.27536000
   109  C          0.69465000       0.93701600       0.95734000
   110  C          0.30535000       0.06298400       0.04266000
   111  H          0.74095000       0.86711600       0.96504000
   112  H          0.25905000       0.13288400       0.03496000
   113  H          0.70195000       0.11871600       0.95064000
   114  H          0.29805000       0.88128400       0.04936000
   115  C          0.59014000       0.93511700       0.86415000
   116  C          0.40986000       0.06488300       0.13585000
   117  H          0.59274000       0.10861700       0.88535000
   118  H          0.40726000       0.89138300       0.11465000
   119  H          0.59164000       0.94801700       0.81585000
   120  H          0.40836000       0.05198300       0.18415000
   121  C          0.85174000       0.10611400       0.80114000
   122  C          0.14826000       0.89388600       0.19886000
   123  H          0.89864000       0.15721400       0.81994000
   124  H          0.10136000       0.84278600       0.18006000
   125  C          0.66016000       0.90820000       0.01995000
   126  C          0.33984000       0.09180000       0.98005000
   127  H          0.68936000       0.00820000       0.05835000
   128  H          0.31064000      -0.00820000       0.94165000
   129  H          0.61436000      -0.01780000       0.01235000
   130  H          0.38564000       0.01780000       0.98765000
   131  C          0.64947000       0.64020000       0.03886000
   132  C          0.35053000       0.35980000       0.96114000
   133  H          0.60730000       0.55960000       0.01230000
   134  H          0.39270000       0.44040000       0.98770000
   135  H          0.68930000       0.54760000       0.03150000
   136  H          0.31070000       0.45240000       0.96850000
   137  H          0.64550000       0.64120000       0.08631300
   138  H          0.35450000       0.35880000       0.91368700
   139  C          0.51915000       0.79620000       0.87207000
   140  C          0.48085000       0.20380000       0.12793000
   141  H          0.51645000       0.62320000       0.85027000
   142  H          0.48355000       0.37680000       0.14973000
   143  H          0.51825000       0.78020000       0.92037000
   144  H          0.48175000       0.21980000       0.07963000
   145  C          0.45886000       0.91930000       0.84397000
   146  C          0.54114000       0.08070000       0.15603000
   147  H          0.46430000       0.96519000       0.79920000
   148  H          0.53570000       0.03481000       0.20080000
   149  H          0.41709000       0.80580000       0.84250000
   150  H          0.58291000       0.19420000       0.15750000
   151  H          0.45530000       0.07212000       0.87230000
   152  H          0.54470000       0.92788000       0.12770000
   153  N          0.89853000       0.87051100       0.60533000
   154  N          0.10147000       0.12948900       0.39467000
   155  N          0.01373000       0.46161100       0.52733000
   156  N          0.98627000       0.53838900       0.47267000
   157  C          0.96994000       0.25941300       0.55074000
   158  C          0.03006000       0.74058700       0.44926000
   159  C          0.90445000       0.16141500       0.51804000
   160  C          0.09555000       0.83858500       0.48196000
   161  H          0.88355000       0.22511500       0.47754000
   162  H          0.11645000       0.77488500       0.52246000
   163  C          0.96154000       0.96741500       0.63614000
   164  C          0.03846000       0.03258500       0.36386000
   165  H          0.98144000       0.90141500       0.67674000
   166  H          0.01856000       0.09858500       0.32326000
   167  C          0.86984000       0.96211600       0.54724000
   168  C          0.13016000       0.03788400       0.45276000
   169  H          0.82554000       0.89231600       0.52524000
   170  H          0.17446000       0.10768400       0.47476000
   171  C         -0.00036000       0.16471400       0.61054000
   172  C          0.00036000       0.83528600       0.38946000
   173  H          0.04414000       0.23001400       0.63344000
   174  H          0.95586000       0.76998600       0.36656000
   175  C          0.01654000       0.65041600       0.88644000
   176  C          0.98346000       0.34958400       0.11356000
   177  N          0.11164000       0.37341200       0.90384000
   178  N          0.88836000       0.62658800       0.09616000
   179  N          0.99044000       0.95341500       0.97183000
   180  N          0.00956000       0.04658500       0.02817000
   181  C          0.05544000       0.45171600       0.86444000
   182  C          0.94456000       0.54828400       0.13556000
   183  H          0.04134000       0.37211600       0.82074000
   184  H          0.95866000       0.62788400       0.17926000
   185  C          0.03604000       0.75691400       0.95124000
   186  C          0.96396000       0.24308600       0.04876000
   187  C          0.13095000       0.48681700       0.96684000
   188  C          0.86905000       0.51318300       0.03316000
   189  H          0.17095000       0.43431700      -0.00576000
   190  H          0.82905000       0.56568300       0.00576000
   191  C          0.09455000       0.67621700       0.99254000
   192  C          0.90545000       0.32378300       0.00746000
   193  H          0.10875000       0.74931700       0.03694000
   194  H          0.89125000       0.25068300       0.96306000
   195  H          0.97834000       0.70761600       0.85744000
   196  H          0.02166000       0.29238400       0.14256000
