data_JIGKES
_symmetry_space_group_name_H-M    'P1'
_symmetry_Int_Tables_number       1
loop_
_symmetry_equiv_pos_site_id
_symmetry_equiv_pos_as_xyz
1 x,y,z
_cell_length_a                   7.31537
_cell_length_b                   11.694711
_cell_length_c                   11.741813
_cell_angle_alpha                79.9809
_cell_angle_beta                 79.3318
_cell_angle_gamma                85.5358
loop_
_atom_site_label
_atom_site_type_symbol
_atom_site_fract_x
_atom_site_fract_y
_atom_site_fract_z
     1  S          0.81804800       0.14661500       0.69793500
     2  S          0.18195200       0.85338500       0.30206500
     3  O          0.97492000       0.15611170       0.75165170
     4  O          0.02508000       0.84388830       0.24834830
     5  O          0.73533000       0.03758150       0.71352000
     6  O          0.26467000       0.96241850       0.28648000
     7  O          0.25373000       0.58038190       0.89262000
     8  O          0.74627000       0.41961810       0.10738000
     9  H          0.15870000       0.61400000       0.92190000
    10  H          0.84130000       0.38600000       0.07810000
    11  N          0.87873000       0.18842000       0.55868180
    12  N          0.12127000       0.81158000       0.44131820
    13  O          0.06023000       0.49972000       0.80943000
    14  O          0.93977000       0.50028000       0.19057000
    15  C          0.64133000       0.24840180       0.74839190
    16  C          0.35867000       0.75159820       0.25160810
    17  C          0.36543000       0.41340190       0.81012000
    18  C          0.63457000       0.58659810       0.18988000
    19  C          0.68403000       0.33859190       0.79972000
    20  C          0.31597000       0.66140810       0.20028000
    21  H          0.80420000       0.34440000       0.81290000
    22  H          0.19580000       0.65560000       0.18710000
    23  C          0.32493000       0.32122000       0.76182000
    24  C          0.67507000       0.67878000       0.23818000
    25  H          0.20450000       0.31500000       0.74940000
    26  H          0.79550000       0.68500000       0.25060000
    27  C          0.54353000       0.42052000       0.83132000
    28  C          0.45647000       0.57948000       0.16868000
    29  H          0.56980000       0.48070000       0.86720000
    30  H          0.43020000       0.51930000       0.13280000
    31  C          0.46173000       0.23772000       0.73162000
    32  C          0.53827000       0.76228000       0.26838000
    33  H          0.43300000       0.17500000       0.70030000
    34  H          0.56700000       0.82500000       0.29970000
    35  C          0.20924000       0.50202000       0.83723000
    36  C          0.79076000       0.49798000       0.16277000
    37  C          0.98515000       0.29293000       0.52053000
    38  C          0.01485000       0.70707000       0.47947000
    39  H         -0.01240000       0.32980000       0.58800000
    40  H          0.01240000       0.67020000       0.41200000
    41  H          0.92290000       0.34700000       0.46580000
    42  H          0.07710000       0.65300000       0.53420000
    43  C          0.18175000       0.26803000       0.46234000
    44  C          0.81825000       0.73197000       0.53766000
    45  H          0.18030000       0.23230000       0.39390000
    46  H          0.81970000       0.76770000       0.60610000
    47  H          0.24470000       0.21380000       0.51640000
    48  H          0.75530000       0.78620000       0.48360000
    49  C          0.74835000       0.17124000       0.48013000
    50  C          0.25165000       0.82876000       0.51987000
    51  H          0.64490000       0.12790000       0.52720000
    52  H          0.35510000       0.87210000       0.47280000
    53  H          0.69820000       0.24690000       0.44840000
    54  H          0.30180000       0.75310000       0.55160000
    55  C          0.68996000       0.09044000       0.31034000
    56  C          0.31004000       0.90956000       0.68966000
    57  H          0.75700000       0.07680000       0.23510000
    58  H          0.24300000       0.92320000       0.76490000
    59  H          0.60540000       0.15690000       0.29970000
    60  H          0.39460000       0.84310000       0.70030000
    61  H          0.62100000       0.02350000       0.34800000
    62  H          0.37900000       0.97650000       0.65200000
    63  C          0.28776000       0.37994000       0.42515000
    64  C          0.71224000       0.62006000       0.57485000
    65  H          0.39370000       0.36840000       0.36570000
    66  H          0.60630000       0.63160000       0.63430000
    67  H          0.32870000       0.39990000       0.49190000
    68  H          0.67130000       0.60010000       0.50810000
    69  H          0.20720000       0.44170000       0.39430000
    70  H          0.79280000       0.55830000       0.60570000
    71  C          0.82586000       0.11274000       0.38574000
    72  C          0.17414000       0.88726000       0.61426000
    73  H          0.88150000       0.03860000       0.41700000
    74  H          0.11850000       0.96140000       0.58300000
    75  H          0.92480000       0.15800000       0.33610000
    76  H          0.07520000       0.84200000       0.66390000
    77  N          0.96183000       0.73038190       0.93032000
    78  N          0.03817000       0.26961810       0.06968000
    79  N          0.48853000       0.95402170       0.98612000
    80  N          0.51147000       0.04597830       0.01388000
    81  C          0.65663000       0.88129180       0.96892000
    82  C          0.34337000       0.11870820       0.03108000
    83  C          0.81854000       0.89622000       0.00573000
    84  C          0.18146000       0.10378000      -0.00573000
    85  H          0.82750000       0.95780000       0.04470000
    86  H          0.17250000       0.04220000       0.95530000
    87  C          0.64444000       0.78652000       0.91323000
    88  C          0.35556000       0.21348000       0.08677000
    89  H          0.53520000       0.77270000       0.88900000
    90  H          0.46480000       0.22730000       0.11100000
    91  C          0.80514000       0.71312000       0.89553000
    92  C          0.19486000       0.28688000       0.10447000
    93  H          0.80130000       0.64980000       0.85790000
    94  H          0.19870000       0.35020000       0.14210000
    95  C          0.96774000       0.81942000       0.98443000
    96  C          0.03226000       0.18058000       0.01557000
    97  H          0.07760000       0.83060000       0.00930000
    98  H          0.92240000       0.16940000      -0.00930000
