data_JIYKEH02
_symmetry_space_group_name_H-M    'P1'
_symmetry_Int_Tables_number       1
loop_
_symmetry_equiv_pos_site_id
_symmetry_equiv_pos_as_xyz
1 x,y,z
_cell_length_a                   8.9603
_cell_length_b                   13.0515
_cell_length_c                   27.9171
_cell_angle_alpha                96.5417
_cell_angle_beta                 90.9437
_cell_angle_gamma                100.1717
loop_
_atom_site_label
_atom_site_type_symbol
_atom_site_fract_x
_atom_site_fract_y
_atom_site_fract_z
     1  C          0.81696000       0.05095000       0.11575180
     2  C          0.18304000       0.94905000       0.88424820
     3  C          0.95286000       0.09285000       0.09552000
     4  C          0.04714000       0.90715000       0.90448000
     5  Cl         0.02239190       0.22511150       0.10500700
     6  Cl         0.97760810       0.77488850       0.89499300
     7  C          0.53576000       0.08095000       0.20880190
     8  C          0.46424000       0.91905000       0.79119810
     9  Cl         0.39112170       0.10109150       0.17055600
    10  Cl         0.60887830       0.89890850       0.82944400
    11  C          0.49496000       0.05125000       0.25412000
    12  C          0.50504000       0.94875000       0.74588000
    13  Cl         0.30802180       0.03558160       0.27085600
    14  Cl         0.69197820       0.96441840       0.72914400
    15  C          0.60677000       0.02935000       0.28467190
    16  C          0.39323000       0.97065000       0.71532810
    17  Cl         0.55822000      -0.01159180       0.33971600
    18  Cl         0.44178000       0.01159180       0.66028400
    19  C          0.75716000       0.04425000       0.27192000
    20  C          0.24284000       0.95575000       0.72808000
    21  Cl         0.89646190       0.02406150       0.31063600
    22  Cl         0.10353810       0.97593850       0.68936400
    23  C          0.79526000       0.07425000       0.22652000
    24  C          0.20474000       0.92575000       0.77348000
    25  Cl        -0.01569840       0.09551150       0.21298600
    26  Cl         0.01569840       0.90448850       0.78701400
    27  C          0.68446000       0.09205000       0.19373180
    28  C          0.31554000       0.90795000       0.80626820
    29  C          0.62406000       0.20745000       0.08002000
    30  C          0.37594000       0.79255000       0.91998000
    31  Cl         0.58637170       0.09162150       0.04331500
    32  Cl         0.41362830       0.90837850       0.95668500
    33  C          0.58577000       0.29527000       0.06213000
    34  C          0.41423000       0.70473000       0.93787000
    35  Cl         0.50983000       0.28552000       0.00495800
    36  Cl         0.49017000       0.71448000      -0.00495800
    37  C          0.61028000       0.38827000       0.09003000
    38  C          0.38972000       0.61173000       0.90997000
    39  Cl         0.56363000       0.49902000       0.06967120
    40  Cl         0.43637000       0.50098000       0.93032880
    41  C          0.67338000       0.39896000       0.13713000
    42  C          0.32662000       0.60104000       0.86287000
    43  Cl         0.71173000       0.51704170       0.17229110
    44  Cl         0.28827000       0.48295830       0.82770890
    45  C          0.71097000       0.30825000       0.15512000
    46  C          0.28903000       0.69175000       0.84488000
    47  Cl         0.80282000       0.32405160       0.21031600
    48  Cl         0.19718000       0.67594840       0.78968400
    49  C          0.68666000       0.21185000       0.12692000
    50  C          0.31334000       0.78815000       0.87308000
    51  C          0.77136000       0.94265000       0.10725190
    52  C          0.22864000       0.05735000       0.89274810
    53  Cl         0.59662170       0.88378860       0.12635600
    54  Cl         0.40337830       0.11621140       0.87364400
    55  C          0.86077000       0.87755000       0.08252000
    56  C          0.13923000       0.12245000       0.91748000
    57  Cl         0.80062000       0.74381850       0.07342600
    58  Cl         0.19938000       0.25618150       0.92657400
    59  C         -0.00283000       0.92094000       0.06462000
    60  C          0.00283000       0.07906000       0.93538000
    61  Cl         0.10902000       0.84212810       0.03479700
    62  Cl         0.89098000       0.15787190       0.96520300
    63  C          0.04276000       0.02786000       0.07022000
    64  C          0.95724000       0.97214000       0.92978000
    65  Cl         0.21134180       0.08337180       0.04699700
    66  Cl         0.78865820       0.91662820       0.95300300
    67  C          0.72217000       0.11745000       0.14402000
    68  C          0.27783000       0.88255000       0.85598000
    69  Cl         0.24073000       0.54232000       0.50680800
    70  Cl         0.75927000       0.45768000       0.49319200
    71  Cl         0.01823000       0.30351170       0.34379110
    72  Cl        -0.01823000       0.69648830       0.65620890
    73  Cl         0.85718000       0.79781150       0.19915600
    74  Cl         0.14282000       0.20218850       0.80084400
    75  Cl         0.19112000       0.80676190       0.16695600
    76  Cl         0.80888000       0.19323810       0.83304400
    77  Cl         0.43438190       0.75471180       0.23631700
    78  Cl         0.56561810       0.24528820       0.76368300
    79  Cl         0.35099170       0.70514150       0.33913600
    80  Cl         0.64900830       0.29485850       0.66086400
    81  C          0.21196000       0.72835000       0.29992000
    82  C          0.78804000       0.27165000       0.70008000
    83  Cl         0.68288000       0.00192000       0.48271800
    84  Cl         0.31712000      -0.00192000       0.51728200
    85  C          0.77843000       0.91606000       0.44982000
    86  C          0.22157000       0.08394000       0.55018000
    87  Cl         0.54698000       0.76412000       0.46626800
    88  Cl         0.45302000       0.23588000       0.53373200
    89  C          0.71993000       0.81126000       0.44202000
    90  C          0.28007000       0.18874000       0.55798000
    91  C          0.02187000       0.70635000       0.36632000
    92  C          0.97813000       0.29365000       0.63368000
    93  C          0.05406000       0.61145000       0.38592000
    94  C          0.94594000       0.38855000       0.61408000
    95  Cl         0.15999180       0.73470150       0.46794600
    96  Cl         0.84000820       0.26529850       0.53205400
    97  C          0.11906000       0.61705000       0.43232000
    98  C          0.88094000       0.38295000       0.56768000
    99  C          0.15717000       0.53146000       0.45052000
   100  C          0.84283000       0.46854000       0.54948000
   101  C          0.12868000       0.43637000       0.42413000
   102  C          0.87132000       0.56363000       0.57587000
   103  Cl         0.17913000       0.32852190       0.44609110
   104  Cl         0.82087000       0.67147810       0.55390890
   105  C          0.06138000       0.42445000       0.37803000
   106  C          0.93862000       0.57555000       0.62197000
   107  Cl         0.93228000       0.49507160       0.30325600
   108  Cl         0.06772000       0.50492840       0.69674400
   109  C          0.02386000       0.51176000       0.35892000
   110  C          0.97614000       0.48824000       0.64108000
   111  C          0.06176000       0.72634000       0.31672180
   112  C          0.93824000       0.27366000       0.68327820
   113  Cl         0.76482830       0.73527150       0.29776600
   114  Cl         0.23517170       0.26472850       0.70223400
   115  C          0.95404000       0.74795000       0.28334190
   116  C          0.04596000       0.25205000       0.71665810
   117  C         -0.00727000       0.77205000       0.23772190
   118  C          0.00727000       0.22795000       0.76227810
   119  C          0.14097000       0.77385000       0.22321190
   120  C          0.85903000       0.22615000       0.77678810
   121  C          0.24986000       0.75165000       0.25432000
   122  C          0.75014000       0.24835000       0.74568000
   123  C          0.93514000       0.77795000       0.39525190
   124  C          0.06486000       0.22205000       0.60474810
   125  C         -0.00856000       0.88455000       0.40317190
   126  C          0.00856000       0.11545000       0.59682810
   127  Cl         0.16763170       0.93497140       0.38177600
   128  Cl         0.83236830       0.06502860       0.61822400
   129  Cl        -0.00872000       0.08549150       0.43969700
   130  Cl         0.00872000       0.91450850       0.56030300
   131  C          0.91593000       0.95385000       0.43002000
   132  C          0.08407000       0.04615000       0.56998000
   133  C          0.79693000       0.74265000       0.41542000
   134  C          0.20307000       0.25735000       0.58458000
   135  Cl         0.71128810       0.61394150       0.40357600
   136  Cl         0.28871190       0.38605850       0.59642400
