data_JIYKEH
_symmetry_space_group_name_H-M    'P1'
_symmetry_Int_Tables_number       1
loop_
_symmetry_equiv_pos_site_id
_symmetry_equiv_pos_as_xyz
1 x,y,z
_cell_length_a                   13.6122
_cell_length_b                   11.4172
_cell_length_c                   17.9071
_cell_angle_alpha                90.0
_cell_angle_beta                 108.271
_cell_angle_gamma                90.0
loop_
_atom_site_label
_atom_site_type_symbol
_atom_site_fract_x
_atom_site_fract_y
_atom_site_fract_z
     1  Cl         0.83850000       0.28950000       0.20940000
     2  Cl         0.33850000       0.78950000       0.20940000
     3  Cl         0.16150000       0.28950000       0.29060000
     4  Cl         0.66150000       0.78950000       0.29060000
     5  Cl         0.16150000       0.71050000       0.79060000
     6  Cl         0.66150000       0.21050000       0.79060000
     7  Cl         0.83850000       0.71050000       0.70940000
     8  Cl         0.33850000       0.21050000       0.70940000
     9  Cl         0.80050000       0.40770000       0.04930000
    10  Cl         0.30050000       0.90770000       0.04930000
    11  Cl         0.19950000       0.40770000       0.45070000
    12  Cl         0.69950000       0.90770000       0.45070000
    13  Cl         0.19950000       0.59230000       0.95070000
    14  Cl         0.69950000       0.09230000       0.95070000
    15  Cl         0.80050000       0.59230000       0.54930000
    16  Cl         0.30050000       0.09230000       0.54930000
    17  Cl         0.92760000       0.33460000       0.94060000
    18  Cl         0.42760000       0.83460000       0.94060000
    19  Cl         0.07240000       0.33460000       0.55940000
    20  Cl         0.57240000       0.83460000       0.55940000
    21  Cl         0.07240000       0.66540000       0.05940000
    22  Cl         0.57240000       0.16540000       0.05940000
    23  Cl         0.92760000       0.66540000       0.44060000
    24  Cl         0.42760000       0.16540000       0.44060000
    25  Cl         0.08950000       0.13360000       0.98960000
    26  Cl         0.58950000       0.63360000       0.98960000
    27  Cl         0.91050000       0.13360000       0.51040000
    28  Cl         0.41050000       0.63360000       0.51040000
    29  Cl         0.91050000       0.86640000       0.01040000
    30  Cl         0.41050000       0.36640000       0.01040000
    31  Cl         0.08950000       0.86640000       0.48960000
    32  Cl         0.58950000       0.36640000       0.48960000
    33  Cl         0.13460000       0.01970000       0.15230000
    34  Cl         0.63460000       0.51970000       0.15230000
    35  Cl         0.86540000       0.01970000       0.34770000
    36  Cl         0.36540000       0.51970000       0.34770000
    37  Cl         0.86540000       0.98030000       0.84770000
    38  Cl         0.36540000       0.48030000       0.84770000
    39  Cl         0.13460000       0.98030000       0.65230000
    40  Cl         0.63460000       0.48030000       0.65230000
    41  Cl         0.80580000       0.97560000       0.14610000
    42  Cl         0.30580000       0.47560000       0.14610000
    43  Cl         0.19420000       0.97560000       0.35390000
    44  Cl         0.69420000       0.47560000       0.35390000
    45  Cl         0.19420000       0.02440000       0.85390000
    46  Cl         0.69420000       0.52440000       0.85390000
    47  Cl         0.80580000       0.02440000       0.64610000
    48  Cl         0.30580000       0.52440000       0.64610000
    49  Cl         0.80980000       0.70660000       0.14510000
    50  Cl         0.30980000       0.20660000       0.14510000
    51  Cl         0.19020000       0.70660000       0.35490000
    52  Cl         0.69020000       0.20660000       0.35490000
    53  Cl         0.19020000       0.29340000       0.85490000
    54  Cl         0.69020000       0.79340000       0.85490000
    55  Cl         0.80980000       0.29340000       0.64510000
    56  Cl         0.30980000       0.79340000       0.64510000
    57  Cl        -0.00000000       0.57850000       0.25000000
    58  Cl         0.50000000       0.07850000       0.25000000
    59  Cl        -0.00000000       0.42150000       0.75000000
    60  Cl         0.50000000       0.92150000       0.75000000
    61  C         -0.00000000       0.09950000       0.25000000
    62  C          0.50000000       0.59950000       0.25000000
    63  C         -0.00000000       0.90050000       0.75000000
    64  C          0.50000000       0.40050000       0.75000000
    65  C          0.98260000       0.15360000       0.17530000
    66  C          0.48260000       0.65360000       0.17530000
    67  C          0.01740000       0.15360000       0.32470000
    68  C          0.51740000       0.65360000       0.32470000
    69  C          0.01740000       0.84640000       0.82470000
    70  C          0.51740000       0.34640000       0.82470000
    71  C          0.98260000       0.84640000       0.67530000
    72  C          0.48260000       0.34640000       0.67530000
    73  C          0.91260000       0.24650000       0.15130000
    74  C          0.41260000       0.74650000       0.15130000
    75  C          0.08740000       0.24650000       0.34870000
    76  C          0.58740000       0.74650000       0.34870000
    77  C          0.08740000       0.75350000       0.84870000
    78  C          0.58740000       0.25350000       0.84870000
    79  C          0.91260000       0.75350000       0.65130000
    80  C          0.41260000       0.25350000       0.65130000
    81  C          0.89450000       0.30160000       0.07830000
    82  C          0.39450000       0.80160000       0.07830000
    83  C          0.10550000       0.30160000       0.42170000
    84  C          0.60550000       0.80160000       0.42170000
    85  C          0.10550000       0.69840000       0.92170000
    86  C          0.60550000       0.19840000       0.92170000
    87  C          0.89450000       0.69840000       0.57830000
    88  C          0.39450000       0.19840000       0.57830000
    89  C          0.94960000       0.26660000       0.03030000
    90  C          0.44960000       0.76660000       0.03030000
    91  C          0.05040000       0.26660000       0.46970000
    92  C          0.55040000       0.76660000       0.46970000
    93  C          0.05040000       0.73340000       0.96970000
    94  C          0.55040000       0.23340000       0.96970000
    95  C          0.94960000       0.73340000       0.53030000
    96  C          0.44960000       0.23340000       0.53030000
    97  C          0.02140000       0.17660000       0.05130000
    98  C          0.52140000       0.67660000       0.05130000
    99  C          0.97860000       0.17660000       0.44870000
   100  C          0.47860000       0.67660000       0.44870000
   101  C          0.97860000       0.82340000       0.94870000
   102  C          0.47860000       0.32340000       0.94870000
   103  C          0.02140000       0.82340000       0.55130000
   104  C          0.52140000       0.32340000       0.55130000
   105  C          0.03850000       0.12360000       0.12430000
   106  C          0.53850000       0.62360000       0.12430000
   107  C          0.96150000       0.12360000       0.37570000
   108  C          0.46150000       0.62360000       0.37570000
   109  C          0.96150000       0.87640000       0.87570000
   110  C          0.46150000       0.37640000       0.87570000
   111  C          0.03850000       0.87640000       0.62430000
   112  C          0.53850000       0.37640000       0.62430000
   113  C         -0.00000000       0.96960000       0.25000000
   114  C          0.50000000       0.46960000       0.25000000
   115  C         -0.00000000       0.03040000       0.75000000
   116  C          0.50000000       0.53040000       0.75000000
   117  C          0.91590000       0.90470000       0.20260000
   118  C          0.41590000       0.40470000       0.20260000
   119  C          0.08410000       0.90470000       0.29740000
   120  C          0.58410000       0.40470000       0.29740000
   121  C          0.08410000       0.09530000       0.79740000
   122  C          0.58410000       0.59530000       0.79740000
   123  C          0.91590000       0.09530000       0.70260000
   124  C          0.41590000       0.59530000       0.70260000
   125  C          0.91590000       0.78470000       0.20260000
   126  C          0.41590000       0.28470000       0.20260000
   127  C          0.08410000       0.78470000       0.29740000
   128  C          0.58410000       0.28470000       0.29740000
   129  C          0.08410000       0.21530000       0.79740000
   130  C          0.58410000       0.71530000       0.79740000
   131  C          0.91590000       0.21530000       0.70260000
   132  C          0.41590000       0.71530000       0.70260000
   133  C         -0.00000000       0.72460000       0.25000000
   134  C          0.50000000       0.22460000       0.25000000
   135  C         -0.00000000       0.27540000       0.75000000
   136  C          0.50000000       0.77540000       0.75000000
   137  C          0.01740000       0.15360000       0.32530000
   138  C          0.51740000       0.65360000       0.32530000
   139  C          0.98260000       0.15360000       0.17470000
   140  C          0.48260000       0.65360000       0.17470000
   141  C          0.98260000       0.84640000       0.67470000
   142  C          0.48260000       0.34640000       0.67470000
   143  C          0.01740000       0.84640000       0.82530000
   144  C          0.51740000       0.34640000       0.82530000
   145  C          0.08410000       0.90470000       0.29860000
   146  C          0.58410000       0.40470000       0.29860000
   147  C          0.91590000       0.90470000       0.20140000
   148  C          0.41590000       0.40470000       0.20140000
   149  C          0.91590000       0.09530000       0.70140000
   150  C          0.41590000       0.59530000       0.70140000
   151  C          0.08410000       0.09530000       0.79860000
   152  C          0.58410000       0.59530000       0.79860000
   153  C          0.08410000       0.78470000       0.29860000
   154  C          0.58410000       0.28470000       0.29860000
   155  C          0.91590000       0.78470000       0.20140000
   156  C          0.41590000       0.28470000       0.20140000
   157  C          0.91590000       0.21530000       0.70140000
   158  C          0.41590000       0.71530000       0.70140000
   159  C          0.08410000       0.21530000       0.79860000
   160  C          0.58410000       0.71530000       0.79860000
   161  C          0.08740000       0.24650000       0.34930000
   162  C          0.58740000       0.74650000       0.34930000
   163  C          0.91260000       0.24650000       0.15070000
   164  C          0.41260000       0.74650000       0.15070000
   165  C          0.91260000       0.75350000       0.65070000
   166  C          0.41260000       0.25350000       0.65070000
   167  C          0.08740000       0.75350000       0.84930000
   168  C          0.58740000       0.25350000       0.84930000
   169  C          0.96150000       0.12360000       0.37630000
   170  C          0.46150000       0.62360000       0.37630000
   171  C          0.03850000       0.12360000       0.12370000
   172  C          0.53850000       0.62360000       0.12370000
   173  C          0.03850000       0.87640000       0.62370000
   174  C          0.53850000       0.37640000       0.62370000
   175  C          0.96150000       0.87640000       0.87630000
   176  C          0.46150000       0.37640000       0.87630000
   177  Cl         0.16150000       0.28950000       0.29140000
   178  Cl         0.66150000       0.78950000       0.29140000
   179  Cl         0.83850000       0.28950000       0.20860000
   180  Cl         0.33850000       0.78950000       0.20860000
   181  Cl         0.83850000       0.71050000       0.70860000
   182  Cl         0.33850000       0.21050000       0.70860000
   183  Cl         0.16150000       0.71050000       0.79140000
   184  Cl         0.66150000       0.21050000       0.79140000
   185  C          0.10550000       0.30160000       0.42230000
   186  C          0.60550000       0.80160000       0.42230000
   187  C          0.89450000       0.30160000       0.07770000
   188  C          0.39450000       0.80160000       0.07770000
   189  C          0.89450000       0.69840000       0.57770000
   190  C          0.39450000       0.19840000       0.57770000
   191  C          0.10550000       0.69840000       0.92230000
   192  C          0.60550000       0.19840000       0.92230000
   193  Cl         0.86540000       0.01970000       0.34830000
   194  Cl         0.36540000       0.51970000       0.34830000
   195  Cl         0.13460000       0.01970000       0.15170000
   196  Cl         0.63460000       0.51970000       0.15170000
   197  Cl         0.13460000       0.98030000       0.65170000
   198  Cl         0.63460000       0.48030000       0.65170000
   199  Cl         0.86540000       0.98030000       0.84830000
   200  Cl         0.36540000       0.48030000       0.84830000
   201  C          0.97860000       0.17660000       0.44930000
   202  C          0.47860000       0.67660000       0.44930000
   203  C          0.02140000       0.17660000       0.05070000
   204  C          0.52140000       0.67660000       0.05070000
   205  C          0.02140000       0.82340000       0.55070000
   206  C          0.52140000       0.32340000       0.55070000
   207  C          0.97860000       0.82340000       0.94930000
   208  C          0.47860000       0.32340000       0.94930000
   209  Cl         0.19950000       0.40770000       0.45130000
   210  Cl         0.69950000       0.90770000       0.45130000
   211  Cl         0.80050000       0.40770000       0.04870000
   212  Cl         0.30050000       0.90770000       0.04870000
   213  Cl         0.80050000       0.59230000       0.54870000
   214  Cl         0.30050000       0.09230000       0.54870000
   215  Cl         0.19950000       0.59230000       0.95130000
   216  Cl         0.69950000       0.09230000       0.95130000
   217  C          0.05040000       0.26660000       0.47030000
   218  C          0.55040000       0.76660000       0.47030000
   219  C          0.94960000       0.26660000       0.02970000
   220  C          0.44960000       0.76660000       0.02970000
   221  C          0.94960000       0.73340000       0.52970000
   222  C          0.44960000       0.23340000       0.52970000
   223  C          0.05040000       0.73340000       0.97030000
   224  C          0.55040000       0.23340000       0.97030000
