data_JIYKEH01
_symmetry_space_group_name_H-M    'P1'
_symmetry_Int_Tables_number       1
loop_
_symmetry_equiv_pos_site_id
_symmetry_equiv_pos_as_xyz
1 x,y,z
_cell_length_a                   13.7181
_cell_length_b                   11.5428
_cell_length_c                   17.94613
_cell_angle_alpha                90.0
_cell_angle_beta                 108.13413
_cell_angle_gamma                90.0
loop_
_atom_site_label
_atom_site_type_symbol
_atom_site_fract_x
_atom_site_fract_y
_atom_site_fract_z
     1  Cl         0.12612000       0.48276190       0.14486140
     2  Cl         0.87388000       0.48276190       0.35513860
     3  Cl         0.62612000       0.98276190       0.14486140
     4  Cl         0.37388000       0.98276190       0.35513860
     5  Cl         0.87388000       0.51723810       0.85513860
     6  Cl         0.12612000       0.51723810       0.64486140
     7  Cl         0.37388000       0.01723810       0.85513860
     8  Cl         0.62612000       0.01723810       0.64486140
     9  C          0.98002000       0.34686000       0.17484000
    10  C          0.01998000       0.34686000       0.32516000
    11  C          0.48002000       0.84686000       0.17484000
    12  C          0.51998000       0.84686000       0.32516000
    13  C          0.01998000       0.65314000       0.82516000
    14  C          0.98002000       0.65314000       0.67484000
    15  C          0.51998000       0.15314000       0.82516000
    16  C          0.48002000       0.15314000       0.67484000
    17  Cl         0.08492000       0.35812000       0.98975860
    18  Cl         0.91508000       0.35812000       0.51024140
    19  Cl         0.58492000       0.85812000       0.98975860
    20  Cl         0.41508000       0.85812000       0.51024140
    21  Cl         0.91508000       0.64188000       0.01024140
    22  Cl         0.08492000       0.64188000       0.48975860
    23  Cl         0.41508000       0.14188000       0.01024140
    24  Cl         0.58492000       0.14188000       0.48975860
    25  C          0.03357000       0.37526000       0.12294000
    26  C          0.96643000       0.37526000       0.37706000
    27  C          0.53357000       0.87526000       0.12294000
    28  C          0.46643000       0.87526000       0.37706000
    29  C          0.96643000       0.62474000       0.87706000
    30  C          0.03357000       0.62474000       0.62294000
    31  C          0.46643000       0.12474000       0.87706000
    32  C          0.53357000       0.12474000       0.62294000
    33  Cl         0.92366000       0.16124000       0.94208000
    34  Cl         0.07634000       0.16124000       0.55792000
    35  Cl         0.42366000       0.66124000       0.94208000
    36  Cl         0.57634000       0.66124000       0.55792000
    37  Cl         0.07634000       0.83876000       0.05792000
    38  Cl         0.92366000       0.83876000       0.44208000
    39  Cl         0.57634000       0.33876000       0.05792000
    40  Cl         0.42366000       0.33876000       0.44208000
    41  C          0.01527000       0.31837000       0.05104000
    42  C          0.98473000       0.31837000       0.44896000
    43  C          0.51527000       0.81837000       0.05104000
    44  C          0.48473000       0.81837000       0.44896000
    45  C          0.98473000       0.68163000       0.94896000
    46  C          0.01527000       0.68163000       0.55104000
    47  C          0.48473000       0.18163000       0.94896000
    48  C          0.51527000       0.18163000       0.55104000
    49  Cl         0.79917000       0.09322000       0.05388160
    50  Cl         0.20083000       0.09322000       0.44611840
    51  Cl         0.29917000       0.59322000       0.05388160
    52  Cl         0.70083000       0.59322000       0.44611840
    53  Cl         0.20083000       0.90678000       0.94611840
    54  Cl         0.79917000       0.90678000       0.55388160
    55  Cl         0.70083000       0.40678000       0.94611840
    56  Cl         0.29917000       0.40678000       0.55388160
    57  C          0.94542000       0.23158000       0.02975000
    58  C          0.05458000       0.23158000       0.47025000
    59  C          0.44542000       0.73158000       0.02975000
    60  C          0.55458000       0.73158000       0.47025000
    61  C          0.05458000       0.76842000       0.97025000
    62  C          0.94542000       0.76842000       0.52975000
    63  C          0.55458000       0.26842000       0.97025000
    64  C          0.44542000       0.26842000       0.52975000
    65  Cl         0.83798000       0.21662000       0.21151140
    66  Cl         0.16202000       0.21662000       0.28848860
    67  Cl         0.33798000       0.71662000       0.21151140
    68  Cl         0.66202000       0.71662000       0.28848860
    69  Cl         0.16202000       0.78338000       0.78848860
    70  Cl         0.83798000       0.78338000       0.71151140
    71  Cl         0.66202000       0.28338000       0.78848860
    72  Cl         0.33798000       0.28338000       0.71151140
    73  C          0.89213000       0.19967000       0.08095000
    74  C          0.10787000       0.19967000       0.41905000
    75  C          0.39213000       0.69967000       0.08095000
    76  C          0.60787000       0.69967000       0.41905000
    77  C          0.10787000       0.80033000       0.91905000
    78  C          0.89213000       0.80033000       0.58095000
    79  C          0.60787000       0.30033000       0.91905000
    80  C          0.39213000       0.30033000       0.58095000
    81  C          0.91143000       0.25677000       0.15205000
    82  C          0.08857000       0.25677000       0.34795000
    83  C          0.41143000       0.75677000       0.15205000
    84  C          0.58857000       0.75677000       0.34795000
    85  C          0.08857000       0.74323000       0.84795000
    86  C          0.91143000       0.74323000       0.65205000
    87  C          0.58857000       0.24323000       0.84795000
    88  C          0.41143000       0.24323000       0.65205000
    89  Cl         0.19212000       0.53213000       0.35310150
    90  Cl         0.80788000       0.53213000       0.14689850
    91  Cl         0.69212000       0.03213000       0.35310150
    92  Cl         0.30788000       0.03213000       0.14689850
    93  Cl         0.80788000       0.46787000       0.64689850
    94  Cl         0.19212000       0.46787000       0.85310150
    95  Cl         0.30788000       0.96787000       0.64689850
    96  Cl         0.69212000       0.96787000       0.85310150
    97  Cl         0.18993000       0.79313000       0.35562000
    98  Cl         0.81007000       0.79313000       0.14438000
    99  Cl         0.68993000       0.29313000       0.35562000
   100  Cl         0.31007000       0.29313000       0.14438000
   101  Cl         0.81007000       0.20687000       0.64438000
   102  Cl         0.18993000       0.20687000       0.85562000
   103  Cl         0.31007000       0.70687000       0.64438000
   104  Cl         0.68993000       0.70687000       0.85562000
   105  C          0.00000000       0.41069000       0.25000000
   106  C          0.50000000       0.91069000       0.25000000
   107  C          0.00000000       0.58931000       0.75000000
   108  C          0.50000000       0.08931000       0.75000000
   109  C          0.00000000       0.53919000       0.25000000
   110  C          0.50000000       0.03919000       0.25000000
   111  C          0.00000000       0.46081000       0.75000000
   112  C          0.50000000       0.96081000       0.75000000
   113  Cl         0.00000000       0.93065000       0.25000000
   114  Cl         0.50000000       0.43065000       0.25000000
   115  Cl         0.00000000       0.06935000       0.75000000
   116  Cl         0.50000000       0.56935000       0.75000000
   117  C          0.08358000       0.60067000       0.29745000
   118  C          0.91642000       0.60067000       0.20255000
   119  C          0.58358000       0.10067000       0.29745000
   120  C          0.41642000       0.10067000       0.20255000
   121  C          0.91642000       0.39933000       0.70255000
   122  C          0.08358000       0.39933000       0.79745000
   123  C          0.41642000       0.89933000       0.70255000
   124  C          0.58358000       0.89933000       0.79745000
   125  C          0.08609000       0.72068000       0.29795000
   126  C          0.91391000       0.72068000       0.20205000
   127  C          0.58609000       0.22068000       0.29795000
   128  C          0.41391000       0.22068000       0.20205000
   129  C          0.91391000       0.27932000       0.70205000
   130  C          0.08609000       0.27932000       0.79795000
   131  C          0.41391000       0.77932000       0.70205000
   132  C          0.58609000       0.77932000       0.79795000
   133  C          0.00000000       0.77971000       0.25000000
   134  C          0.50000000       0.27971000       0.25000000
   135  C          0.00000000       0.22029000       0.75000000
   136  C          0.50000000       0.72029000       0.75000000
