data_JIZJEH01
_symmetry_space_group_name_H-M    'P1'
_symmetry_Int_Tables_number       1
loop_
_symmetry_equiv_pos_site_id
_symmetry_equiv_pos_as_xyz
1 x,y,z
_cell_length_a                   35.1162
_cell_length_b                   7.74025
_cell_length_c                   9.15395
_cell_angle_alpha                90.0
_cell_angle_beta                 90.0
_cell_angle_gamma                90.0
loop_
_atom_site_label
_atom_site_type_symbol
_atom_site_fract_x
_atom_site_fract_y
_atom_site_fract_z
     1  Cl         0.95137282       0.30618900       0.93938300
     2  Cl         0.54862718       0.19381100       0.43938300
     3  Cl         0.04862718       0.30618900       0.56061700
     4  Cl         0.45137282       0.19381100       0.06061700
     5  Cl         0.04862718       0.69381100       0.06061700
     6  Cl         0.45137282       0.80618900       0.56061700
     7  Cl         0.95137282       0.69381100       0.43938300
     8  Cl         0.54862718       0.80618900       0.93938300
     9  O          0.11762500       0.25712000       0.00122000
    10  O          0.38237500       0.24288000       0.50122000
    11  O          0.88237500       0.25712000       0.49878000
    12  O          0.61762500       0.24288000      -0.00122000
    13  O          0.88237500       0.74288000      -0.00122000
    14  O          0.61762500       0.75712000       0.49878000
    15  O          0.11762500       0.74288000       0.50122000
    16  O          0.38237500       0.75712000       0.00122000
    17  N          0.04088600       0.32873000       0.90398000
    18  N          0.45911400       0.17127000       0.40398000
    19  N          0.95911400       0.32873000       0.59602000
    20  N          0.54088600       0.17127000       0.09602000
    21  N          0.95911400       0.67127000       0.09602000
    22  N          0.54088600       0.82873000       0.59602000
    23  N          0.04088600       0.67127000       0.40398000
    24  N          0.45911400       0.82873000       0.90398000
    25  H          0.05260000       0.41790000       0.95060000
    26  H          0.44740000       0.08210000       0.45060000
    27  H          0.94740000       0.41790000       0.54940000
    28  H          0.55260000       0.08210000       0.04940000
    29  H          0.94740000       0.58210000       0.04940000
    30  H          0.55260000       0.91790000       0.54940000
    31  H          0.05260000       0.58210000       0.45060000
    32  H          0.44740000       0.91790000       0.95060000
    33  H          0.01520000       0.33820000       0.91530000
    34  H          0.48480000       0.16180000       0.41530000
    35  H          0.98480000       0.33820000       0.58470000
    36  H          0.51520000       0.16180000       0.08470000
    37  H          0.98480000       0.66180000       0.08470000
    38  H          0.51520000       0.83820000       0.58470000
    39  H          0.01520000       0.66180000       0.41530000
    40  H          0.48480000       0.83820000       0.91530000
    41  H          0.04670000       0.33200000       0.80720000
    42  H          0.45330000       0.16800000       0.30720000
    43  H          0.95330000       0.33200000       0.69280000
    44  H          0.54670000       0.16800000       0.19280000
    45  H          0.95330000       0.66800000       0.19280000
    46  H          0.54670000       0.83200000       0.69280000
    47  H          0.04670000       0.66800000       0.30720000
    48  H          0.45330000       0.83200000       0.80720000
    49  C          0.15581700       0.26273000       0.95787000
    50  C          0.34418300       0.23727000       0.45787000
    51  C          0.84418300       0.26273000       0.54213000
    52  C          0.65581700       0.23727000       0.04213000
    53  C          0.84418300       0.73727000       0.04213000
    54  C          0.65581700       0.76273000       0.54213000
    55  C          0.15581700       0.73727000       0.45787000
    56  C          0.34418300       0.76273000       0.95787000
    57  C          0.18186800       0.15164000       0.02203000
    58  C          0.31813200       0.34836000       0.52203000
    59  C          0.81813200       0.15164000       0.47797000
    60  C          0.68186800       0.34836000       0.97797000
    61  C          0.81813200       0.84836000       0.97797000
    62  C          0.68186800       0.65164000       0.47797000
    63  C          0.18186800       0.84836000       0.52203000
    64  C          0.31813200       0.65164000       0.02203000
    65  C          0.22004800       0.16774000       0.97967000
    66  C          0.27995200       0.33226000       0.47967000
    67  C          0.77995200       0.16774000       0.52033000
    68  C          0.72004800       0.33226000       0.02033000
    69  C          0.77995200       0.83226000       0.02033000
    70  C          0.72004800       0.66774000       0.52033000
    71  C          0.22004800       0.83226000       0.47967000
    72  C          0.27995200       0.66774000       0.97967000
    73  H          0.23870000       0.09430000       0.02200000
    74  H          0.26130000       0.40570000       0.52200000
    75  H          0.76130000       0.09430000       0.47800000
    76  H          0.73870000       0.40570000       0.97800000
    77  H          0.76130000       0.90570000       0.97800000
    78  H          0.73870000       0.59430000       0.47800000
    79  H          0.23870000       0.90570000       0.52200000
    80  H          0.26130000       0.59430000       0.02200000
    81  C          0.23080800       0.28884000       0.87726000
    82  C          0.26919200       0.21116000       0.37726000
    83  C          0.76919200       0.28884000       0.62274000
    84  C          0.73080800       0.21116000       0.12274000
    85  C          0.76919200       0.71116000       0.12274000
    86  C          0.73080800       0.78884000       0.62274000
    87  C          0.23080800       0.71116000       0.37726000
    88  C          0.26919200       0.78884000       0.87726000
    89  H          0.25670000       0.29660000       0.84830000
    90  H          0.24330000       0.20340000       0.34830000
    91  H          0.74330000       0.29660000       0.65170000
    92  H          0.75670000       0.20340000       0.15170000
    93  H          0.74330000       0.70340000       0.15170000
    94  H          0.75670000       0.79660000       0.65170000
    95  H          0.25670000       0.70340000       0.34830000
    96  H          0.24330000       0.79660000       0.84830000
    97  C          0.20416900       0.39924000       0.81636000
    98  C          0.29583100       0.10076000       0.31636000
    99  C          0.79583100       0.39924000       0.68364000
   100  C          0.70416900       0.10076000       0.18364000
   101  C          0.79583100       0.60076000       0.18364000
   102  C          0.70416900       0.89924000       0.68364000
   103  C          0.20416900       0.60076000       0.31636000
   104  C          0.29583100       0.89924000       0.81636000
   105  H          0.21200000       0.48260000       0.74640000
   106  H          0.28800000       0.01740000       0.24640000
   107  H          0.78800000       0.48260000       0.75360000
   108  H          0.71200000       0.01740000       0.25360000
   109  H          0.78800000       0.51740000       0.25360000
   110  H          0.71200000      -0.01740000       0.75360000
   111  H          0.21200000       0.51740000       0.24640000
   112  H          0.28800000      -0.01740000       0.74640000
   113  C          0.16605800       0.38914000       0.85677000
   114  C          0.33394200       0.11086000       0.35677000
   115  C          0.83394200       0.38914000       0.64323000
   116  C          0.66605800       0.11086000       0.14323000
   117  C          0.83394200       0.61086000       0.14323000
   118  C          0.66605800       0.88914000       0.64323000
   119  C          0.16605800       0.61086000       0.35677000
   120  C          0.33394200       0.88914000       0.85677000
   121  C          0.16981900       0.01994000       0.13364000
   122  C          0.33018100       0.48006000       0.63364000
   123  C          0.83018100       0.01994000       0.36636000
   124  C          0.66981900       0.48006000       0.86636000
   125  C          0.83018100       0.98006000       0.86636000
   126  C          0.66981900       0.51994000       0.36636000
   127  C          0.16981900       0.98006000       0.63364000
   128  C          0.33018100       0.51994000       0.13364000
   129  H          0.15040000       0.07020000       0.19770000
   130  H          0.34960000       0.42980000       0.69770000
   131  H          0.84960000       0.07020000       0.30230000
   132  H          0.65040000       0.42980000       0.80230000
   133  H          0.84960000       0.92980000       0.80230000
   134  H          0.65040000       0.57020000       0.30230000
   135  H          0.15040000       0.92980000       0.69770000
   136  H          0.34960000       0.57020000       0.19770000
   137  H          0.19190000      -0.01470000       0.19200000
   138  H          0.30810000       0.51470000       0.69200000
   139  H          0.80810000      -0.01470000       0.30800000
   140  H          0.69190000       0.51470000       0.80800000
   141  H          0.80810000       0.01470000       0.80800000
   142  H          0.69190000       0.48530000       0.30800000
   143  H          0.19190000       0.01470000       0.69200000
   144  H          0.30810000       0.48530000       0.19200000
   145  H          0.15930000       0.91850000       0.08390000
   146  H          0.34070000       0.58150000       0.58390000
   147  H          0.84070000       0.91850000       0.41610000
   148  H          0.65930000       0.58150000       0.91610000
   149  H          0.84070000       0.08150000       0.91610000
   150  H          0.65930000       0.41850000       0.41610000
   151  H          0.15930000       0.08150000       0.58390000
   152  H          0.34070000       0.41850000       0.08390000
   153  C          0.13683900       0.51195000       0.79546000
   154  C          0.36316100      -0.01195000       0.29546000
   155  C          0.86316100       0.51195000       0.70454000
   156  C          0.63683900      -0.01195000       0.20454000
   157  C          0.86316100       0.48805000       0.20454000
   158  C          0.63683900       0.01195000       0.70454000
   159  C          0.13683900       0.48805000       0.29546000
   160  C          0.36316100       0.01195000       0.79546000
   161  H          0.11940000       0.44870000       0.73110000
   162  H          0.38060000       0.05130000       0.23110000
   163  H          0.88060000       0.44870000       0.76890000
   164  H          0.61940000       0.05130000       0.26890000
   165  H          0.88060000       0.55130000       0.26890000
   166  H          0.61940000       0.94870000       0.76890000
   167  H          0.11940000       0.55130000       0.23110000
   168  H          0.38060000       0.94870000       0.73110000
   169  H          0.14970000       0.60290000       0.73990000
   170  H          0.35030000       0.89710000       0.23990000
   171  H          0.85030000       0.60290000       0.76010000
   172  H          0.64970000       0.89710000       0.26010000
   173  H          0.85030000       0.39710000       0.26010000
   174  H          0.64970000       0.10290000       0.76010000
   175  H          0.14970000       0.39710000       0.23990000
   176  H          0.35030000       0.10290000       0.73990000
   177  H          0.12240000       0.56390000       0.87580000
   178  H          0.37760000       0.93610000       0.37580000
   179  H          0.87760000       0.56390000       0.62420000
   180  H          0.62240000       0.93610000       0.12420000
   181  H          0.87760000       0.43610000       0.12420000
   182  H          0.62240000       0.06390000       0.62420000
   183  H          0.12240000       0.43610000       0.37580000
   184  H          0.37760000       0.06390000       0.87580000
   185  C          0.09523700       0.13064000       0.92707000
   186  C          0.40476300       0.36936000       0.42707000
   187  C          0.90476300       0.13064000       0.57293000
   188  C          0.59523700       0.36936000       0.07293000
   189  C          0.90476300       0.86936000       0.07293000
   190  C          0.59523700       0.63064000       0.57293000
   191  C          0.09523700       0.86936000       0.42707000
   192  C          0.40476300       0.63064000       0.92707000
   193  H          0.10320000       0.01300000       0.95680000
   194  H          0.39680000       0.48700000       0.45680000
   195  H          0.89680000       0.01300000       0.54320000
   196  H          0.60320000       0.48700000       0.04320000
   197  H          0.89680000      -0.01300000       0.04320000
   198  H          0.60320000       0.51300000       0.54320000
   199  H          0.10320000      -0.01300000       0.45680000
   200  H          0.39680000       0.51300000       0.95680000
   201  H          0.09860000       0.14160000       0.82010000
   202  H          0.40140000       0.35840000       0.32010000
   203  H          0.90140000       0.14160000       0.67990000
   204  H          0.59860000       0.35840000       0.17990000
   205  H          0.90140000       0.85840000       0.17990000
   206  H          0.59860000       0.64160000       0.67990000
   207  H          0.09860000       0.85840000       0.32010000
   208  H          0.40140000       0.64160000       0.82010000
   209  C          0.05416700       0.16113000       0.96777000
   210  C          0.44583300       0.33887000       0.46777000
   211  C          0.94583300       0.16113000       0.53223000
   212  C          0.55416700       0.33887000       0.03223000
   213  C          0.94583300       0.83887000       0.03223000
   214  C          0.55416700       0.66113000       0.53223000
   215  C          0.05416700       0.83887000       0.46777000
   216  C          0.44583300       0.66113000       0.96777000
   217  H          0.03850000       0.06610000       0.92420000
   218  H          0.46150000       0.43390000       0.42420000
   219  H          0.96150000       0.06610000       0.57580000
   220  H          0.53850000       0.43390000       0.07580000
   221  H          0.96150000       0.93390000       0.07580000
   222  H          0.53850000       0.56610000       0.57580000
   223  H          0.03850000       0.93390000       0.42420000
   224  H          0.46150000       0.56610000       0.92420000
   225  C          0.04687800       0.16394000       0.13133000
   226  C          0.45312200       0.33606000       0.63133000
   227  C          0.95312200       0.16394000       0.36867000
   228  C          0.54687800       0.33606000       0.86867000
   229  C          0.95312200       0.83606000       0.86867000
   230  C          0.54687800       0.66394000       0.36867000
   231  C          0.04687800       0.83606000       0.63133000
   232  C          0.45312200       0.66394000       0.13133000
   233  H          0.06210000       0.25570000       0.17630000
   234  H          0.43790000       0.24430000       0.67630000
   235  H          0.93790000       0.25570000       0.32370000
   236  H          0.56210000       0.24430000       0.82370000
   237  H          0.93790000       0.74430000       0.82370000
   238  H          0.56210000       0.75570000       0.32370000
   239  H          0.06210000       0.74430000       0.67630000
   240  H          0.43790000       0.75570000       0.17630000
   241  H          0.05400000       0.05230000       0.17360000
   242  H          0.44600000       0.44770000       0.67360000
   243  H          0.94600000       0.05230000       0.32640000
   244  H          0.55400000       0.44770000       0.82640000
   245  H          0.94600000       0.94770000       0.82640000
   246  H          0.55400000       0.55230000       0.32640000
   247  H          0.05400000       0.94770000       0.67360000
   248  H          0.44600000       0.55230000       0.17360000
   249  H          0.01980000       0.18560000       0.14940000
   250  H          0.48020000       0.31440000       0.64940000
   251  H          0.98020000       0.18560000       0.35060000
   252  H          0.51980000       0.31440000       0.85060000
   253  H          0.98020000       0.81440000       0.85060000
   254  H          0.51980000       0.68560000       0.35060000
   255  H          0.01980000       0.81440000       0.64940000
   256  H          0.48020000       0.68560000       0.14940000
