data_JIZJEH03
_symmetry_space_group_name_H-M    'P1'
_symmetry_Int_Tables_number       1
loop_
_symmetry_equiv_pos_site_id
_symmetry_equiv_pos_as_xyz
1 x,y,z
_cell_length_a                   20.8572
_cell_length_b                   17.378318
_cell_length_c                   7.56488
_cell_angle_alpha                90.0
_cell_angle_beta                 90.0
_cell_angle_gamma                90.0
loop_
_atom_site_label
_atom_site_type_symbol
_atom_site_fract_x
_atom_site_fract_y
_atom_site_fract_z
     1  Cl         0.41430300       0.41731400       0.44610900
     2  Cl         0.08569700       0.08268600       0.94610900
     3  Cl         0.91430300       0.08268600       0.55389100
     4  Cl         0.58569700       0.41731400       0.05389100
     5  Cl         0.58569700       0.58268600       0.55389100
     6  Cl         0.91430300       0.91731400       0.05389100
     7  Cl         0.08569700       0.91731400       0.44610900
     8  Cl         0.41430300       0.58268600       0.94610900
     9  O          0.31317900       0.65704110       0.53112000
    10  O          0.18682100       0.84295890       0.03112000
    11  O          0.81317900       0.84295890       0.46888000
    12  O          0.68682100       0.65704110       0.96888000
    13  O          0.68682100       0.34295890       0.46888000
    14  O          0.81317900       0.15704110       0.96888000
    15  O          0.18682100       0.15704110       0.53112000
    16  O          0.31317900       0.34295890       0.03112000
    17  N          0.43566130       0.59211140       0.53443000
    18  N          0.06433870       0.90788860       0.03443000
    19  N          0.93566130       0.90788860       0.46557000
    20  N          0.56433870       0.59211140       0.96557000
    21  N          0.56433870       0.40788860       0.46557000
    22  N          0.93566130       0.09211140       0.96557000
    23  N          0.06433870       0.09211140       0.53443000
    24  N          0.43566130       0.40788860       0.03443000
    25  C          0.24691140       0.65292170       0.51344000
    26  C          0.25308860       0.84707830       0.01344000
    27  C          0.74691140       0.84707830       0.48656000
    28  C          0.75308860       0.65292170      -0.01344000
    29  C          0.75308860       0.34707830       0.48656000
    30  C          0.74691140       0.15292170      -0.01344000
    31  C          0.25308860       0.15292170       0.51344000
    32  C          0.24691140       0.34707830       0.01344000
    33  C          0.21663170       0.58370180       0.54545000
    34  C          0.28336830       0.91629820       0.04545000
    35  C          0.71663170       0.91629820       0.45455000
    36  C          0.78336830       0.58370180       0.95455000
    37  C          0.78336830       0.41629820       0.45455000
    38  C          0.71663170       0.08370180       0.95455000
    39  C          0.28336830       0.08370180       0.54545000
    40  C          0.21663170       0.41629820       0.04545000
    41  C          0.15032000       0.58102000       0.53186000
    42  C          0.34968000       0.91898000       0.03186000
    43  C          0.65032000       0.91898000       0.46814000
    44  C          0.84968000       0.58102000       0.96814000
    45  C          0.84968000       0.41898000       0.46814000
    46  C          0.65032000       0.08102000       0.96814000
    47  C          0.34968000       0.08102000       0.53186000
    48  C          0.15032000       0.41898000       0.03186000
    49  H          0.12840000       0.53400000       0.55290000
    50  H          0.37160000       0.96600000       0.05290000
    51  H          0.62840000       0.96600000       0.44710000
    52  H          0.87160000       0.53400000       0.94710000
    53  H          0.87160000       0.46600000       0.44710000
    54  H          0.62840000       0.03400000       0.94710000
    55  H          0.37160000       0.03400000       0.55290000
    56  H          0.12840000       0.46600000       0.05290000
    57  C          0.11564180       0.64672000       0.48746000
    58  C          0.38435820       0.85328000      -0.01254000
    59  C          0.61564180       0.85328000       0.51254000
    60  C          0.88435820       0.64672000       0.01254000
    61  C          0.88435820       0.35328000       0.51254000
    62  C          0.61564180       0.14672000       0.01254000
    63  C          0.38435820       0.14672000       0.48746000
    64  C          0.11564180       0.35328000      -0.01254000
    65  H          0.07030000       0.64400000       0.47570000
    66  H          0.42970000       0.85600000       0.97570000
    67  H          0.57030000       0.85600000       0.52430000
    68  H          0.92970000       0.64400000       0.02430000
    69  H          0.92970000       0.35600000       0.52430000
    70  H          0.57030000       0.14400000       0.02430000
    71  H          0.42970000       0.14400000       0.47570000
    72  H          0.07030000       0.35600000       0.97570000
    73  C          0.14660160       0.71497190       0.46084000
    74  C          0.35339840       0.78502810       0.96084000
    75  C          0.64660160       0.78502810       0.53916000
    76  C          0.85339840       0.71497190       0.03916000
    77  C          0.85339840       0.28502810       0.53916000
    78  C          0.64660160       0.21497190       0.03916000
    79  C          0.35339840       0.21497190       0.46084000
    80  C          0.14660160       0.28502810       0.96084000
    81  H          0.12240000       0.75960000       0.43240000
    82  H          0.37760000       0.74040000       0.93240000
    83  H          0.62240000       0.74040000       0.56760000
    84  H          0.87760000       0.75960000       0.06760000
    85  H          0.87760000       0.24040000       0.56760000
    86  H          0.62240000       0.25960000       0.06760000
    87  H          0.37760000       0.25960000       0.43240000
    88  H          0.12240000       0.24040000       0.93240000
    89  C          0.21319150       0.72029170       0.47464000
    90  C          0.28680850       0.77970830       0.97464000
    91  C          0.71319150       0.77970830       0.52536000
    92  C          0.78680850       0.72029170       0.02536000
    93  C          0.78680850       0.27970830       0.52536000
    94  C          0.71319150       0.22029170       0.02536000
    95  C          0.28680850       0.22029170       0.47464000
    96  C          0.21319150       0.27970830       0.97464000
    97  C          0.24755160       0.79481180       0.45654000
    98  C          0.25244840       0.70518820       0.95654000
    99  C          0.74755160       0.70518820       0.54346000
   100  C          0.75244840       0.79481180       0.04346000
   101  C          0.75244840       0.20518820       0.54346000
   102  C          0.74755160       0.29481180       0.04346000
   103  C          0.25244840       0.29481180       0.45654000
   104  C          0.24755160       0.20518820       0.95654000
   105  H          0.27870000       0.79130000       0.35970000
   106  H          0.22130000       0.70870000       0.85970000
   107  H          0.77870000       0.70870000       0.64030000
   108  H          0.72130000       0.79130000       0.14030000
   109  H          0.72130000       0.20870000       0.64030000
   110  H          0.77870000       0.29130000       0.14030000
   111  H          0.22130000       0.29130000       0.35970000
   112  H          0.27870000       0.20870000       0.85970000
   113  H          0.27000000       0.80660000       0.56700000
   114  H          0.23000000       0.69340000       0.06700000
   115  H          0.77000000       0.69340000       0.43300000
   116  H          0.73000000       0.80660000       0.93300000
   117  H          0.73000000       0.19340000       0.43300000
   118  H          0.77000000       0.30660000       0.93300000
   119  H          0.23000000       0.30660000       0.56700000
   120  H          0.27000000       0.19340000       0.06700000
   121  H          0.21660000       0.83570000       0.43070000
   122  H          0.28340000       0.66430000       0.93070000
   123  H          0.71660000       0.66430000       0.56930000
   124  H          0.78340000       0.83570000       0.06930000
   125  H          0.78340000       0.16430000       0.56930000
   126  H          0.71660000       0.33570000       0.06930000
   127  H          0.28340000       0.33570000       0.43070000
   128  H          0.21660000       0.16430000       0.93070000
   129  C          0.25523190       0.51410190       0.60136000
   130  C          0.24476810       0.98589810       0.10136000
   131  C          0.75523190       0.98589810       0.39864000
   132  C          0.74476810       0.51410190       0.89864000
   133  C          0.74476810       0.48589810       0.39864000
   134  C          0.75523190       0.01410190       0.89864000
   135  C          0.24476810       0.01410190       0.60136000
   136  C          0.25523190       0.48589810       0.10136000
   137  H          0.28610000       0.52910000       0.69260000
   138  H          0.21390000       0.97090000       0.19260000
   139  H          0.78610000       0.97090000       0.30740000
   140  H          0.71390000       0.52910000       0.80740000
   141  H          0.71390000       0.47090000       0.30740000
   142  H          0.78610000       0.02910000       0.80740000
   143  H          0.21390000       0.02910000       0.69260000
   144  H          0.28610000       0.47090000       0.19260000
   145  H          0.27820000       0.49340000       0.49880000
   146  H          0.22180000       0.00660000      -0.00120000
   147  H          0.77820000       0.00660000       0.50120000
   148  H          0.72180000       0.49340000       0.00120000
   149  H          0.72180000       0.50660000       0.50120000
   150  H          0.77820000      -0.00660000       0.00120000
   151  H          0.22180000      -0.00660000       0.49880000
   152  H          0.27820000       0.50660000      -0.00120000
   153  H          0.22630000       0.47470000       0.64860000
   154  H          0.27370000       0.02530000       0.14860000
   155  H          0.72630000       0.02530000       0.35140000
   156  H          0.77370000       0.47470000       0.85140000
   157  H          0.77370000       0.52530000       0.35140000
   158  H          0.72630000       0.97470000       0.85140000
   159  H          0.27370000       0.97470000       0.64860000
   160  H          0.22630000       0.52530000       0.14860000
   161  C          0.34609130       0.64345170       0.36713000
   162  C          0.15390870       0.85654830       0.86713000
   163  C          0.84609130       0.85654830       0.63287000
   164  C          0.65390870       0.64345170       0.13287000
   165  C          0.65390870       0.35654830       0.63287000
   166  C          0.84609130       0.14345170       0.13287000
   167  C          0.15390870       0.14345170       0.36713000
   168  C          0.34609130       0.35654830       0.86713000
   169  H          0.33250000       0.68160000       0.27740000
   170  H          0.16750000       0.81840000       0.77740000
   171  H          0.83250000       0.81840000       0.72260000
   172  H          0.66750000       0.68160000       0.22260000
   173  H          0.66750000       0.31840000       0.72260000
   174  H          0.83250000       0.18160000       0.22260000
   175  H          0.16750000       0.18160000       0.27740000
   176  H          0.33250000       0.31840000       0.77740000
   177  H          0.33600000       0.59130000       0.32220000
   178  H          0.16400000       0.90870000       0.82220000
   179  H          0.83600000       0.90870000       0.67780000
   180  H          0.66400000       0.59130000       0.17780000
   181  H          0.66400000       0.40870000       0.67780000
   182  H          0.83600000       0.09130000       0.17780000
   183  H          0.16400000       0.09130000       0.32220000
   184  H          0.33600000       0.40870000       0.82220000
   185  C          0.41674130       0.65069160       0.40234000
   186  C          0.08325870       0.84930840       0.90234000
   187  C          0.91674130       0.84930840       0.59766000
   188  C          0.58325870       0.65069160       0.09766000
   189  C          0.58325870       0.34930840       0.59766000
   190  C          0.91674130       0.15069160       0.09766000
   191  C          0.08325870       0.15069160       0.40234000
   192  C          0.41674130       0.34930840       0.90234000
   193  H          0.44000000       0.63920000       0.28980000
   194  H          0.06000000       0.86080000       0.78980000
   195  H          0.94000000       0.86080000       0.71020000
   196  H          0.56000000       0.63920000       0.21020000
   197  H          0.56000000       0.36080000       0.71020000
   198  H          0.94000000       0.13920000       0.21020000
   199  H          0.06000000       0.13920000       0.28980000
   200  H          0.44000000       0.36080000       0.78980000
   201  C          0.43749190       0.72930170       0.46505000
   202  C          0.06250810       0.77069830       0.96505000
   203  C          0.93749190       0.77069830       0.53495000
   204  C          0.56250810       0.72930170       0.03495000
   205  C          0.56250810       0.27069830       0.53495000
   206  C          0.93749190       0.22930170       0.03495000
   207  C          0.06250810       0.22930170       0.46505000
   208  C          0.43749190       0.27069830       0.96505000
   209  H          0.48400000       0.72960000       0.48330000
   210  H          0.01600000       0.77040000      -0.01670000
   211  H          0.98400000       0.77040000       0.51670000
   212  H          0.51600000       0.72960000       0.01670000
   213  H          0.51600000       0.27040000       0.51670000
   214  H          0.98400000       0.22960000       0.01670000
   215  H          0.01600000       0.22960000       0.48330000
   216  H          0.48400000       0.27040000      -0.01670000
   217  H          0.41580000       0.74140000       0.57650000
   218  H          0.08420000       0.75860000       0.07650000
   219  H          0.91580000       0.75860000       0.42350000
   220  H          0.58420000       0.74140000       0.92350000
   221  H          0.58420000       0.25860000       0.42350000
   222  H          0.91580000       0.24140000       0.92350000
   223  H          0.08420000       0.24140000       0.57650000
   224  H          0.41580000       0.25860000       0.07650000
   225  H          0.42610000       0.76790000       0.37590000
   226  H          0.07390000       0.73210000       0.87590000
   227  H          0.92610000       0.73210000       0.62410000
   228  H          0.57390000       0.76790000       0.12410000
   229  H          0.57390000       0.23210000       0.62410000
   230  H          0.92610000       0.26790000       0.12410000
   231  H          0.07390000       0.26790000       0.37590000
   232  H          0.42610000       0.23210000       0.87590000
   233  H          0.41651400       0.59571700       0.64160000
   234  H          0.08348600       0.90428300       0.14160000
   235  H          0.91651400       0.90428300       0.35840000
   236  H          0.58348600       0.59571700       0.85840000
   237  H          0.58348600       0.40428300       0.35840000
   238  H          0.91651400       0.09571700       0.85840000
   239  H          0.08348600       0.09571700       0.64160000
   240  H          0.41651400       0.40428300       0.14160000
   241  H          0.42521500       0.54320000       0.50750000
   242  H          0.07478500       0.95680000       0.00750000
   243  H          0.92521500       0.95680000       0.49250000
   244  H          0.57478500       0.54320000      -0.00750000
   245  H          0.57478500       0.45680000       0.49250000
   246  H          0.92521500       0.04320000      -0.00750000
   247  H          0.07478500       0.04320000       0.50750000
   248  H          0.42521500       0.45680000       0.00750000
   249  H          0.47691800       0.59681700       0.55340000
   250  H          0.02308200       0.90318300       0.05340000
   251  H          0.97691800       0.90318300       0.44660000
   252  H          0.52308200       0.59681700       0.94660000
   253  H          0.52308200       0.40318300       0.44660000
   254  H          0.97691800       0.09681700       0.94660000
   255  H          0.02308200       0.09681700       0.55340000
   256  H          0.47691800       0.40318300       0.05340000
