data_JIZJEH
_symmetry_space_group_name_H-M    'P1'
_symmetry_Int_Tables_number       1
loop_
_symmetry_equiv_pos_site_id
_symmetry_equiv_pos_as_xyz
1 x,y,z
_cell_length_a                   8.79615
_cell_length_b                   10.60118
_cell_length_c                   14.22924
_cell_angle_alpha                78.7413
_cell_angle_beta                 79.8914
_cell_angle_gamma                68.6912
loop_
_atom_site_label
_atom_site_type_symbol
_atom_site_fract_x
_atom_site_fract_y
_atom_site_fract_z
     1  Cl         0.06813000       0.33092000       0.12432000
     2  Cl         0.93187000       0.66908000       0.87568000
     3  Cl         0.27723000       0.95172000       0.98232000
     4  Cl         0.72277000       0.04828000       0.01768000
     5  O          0.93464000       0.77375000       0.22244000
     6  O          0.06536000       0.22625000       0.77756000
     7  N          0.04117000       0.77576000       0.02904000
     8  N          0.95883000       0.22424000       0.97096000
     9  C          0.90319000       0.81538000       0.31215000
    10  C          0.09681000       0.18462000       0.68785000
    11  C          0.86928900       0.72659000       0.38866000
    12  C          0.13071100       0.27341000       0.61134000
    13  C          0.82748900       0.77161000       0.47746000
    14  C          0.17251100       0.22839000       0.52254000
    15  C          0.82438700       0.89791100       0.48657000
    16  C          0.17561300       0.10208900       0.51343000
    17  C          0.86218900       0.98389000       0.40777000
    18  C          0.13781100       0.01611000       0.59223000
    19  C          0.90069000       0.94347000       0.31906000
    20  C          0.09931000       0.05653000       0.68094000
    21  C          0.86748700       0.59109000       0.38297000
    22  C          0.13251300       0.40891000       0.61703000
    23  C          0.94188900       0.03398000       0.23107000
    24  C          0.05811100       0.96602000       0.76893000
    25  C          0.10331000       0.70328000       0.19496000
    26  C          0.89669000       0.29672000       0.80504000
    27  C          0.11521000       0.65428000       0.10216000
    28  C          0.88479000       0.34572000       0.89784000
    29  C          0.28561100       0.58148000       0.06317000
    30  C          0.71438900       0.41852000       0.93683000
    31  H          0.80190000       0.71260000       0.53870000
    32  H          0.19810000       0.28740000       0.46130000
    33  H          0.81460000       0.93100000       0.54700000
    34  H          0.18540000       0.06900000       0.45300000
    35  H          0.85910000       0.08970000       0.41530000
    36  H          0.14090000       0.91030000       0.58470000
    37  H          0.96640000       0.51300000       0.36390000
    38  H          0.03360000       0.48700000       0.63610000
    39  H          0.87530000       0.55830000       0.31540000
    40  H          0.12470000       0.44170000       0.68460000
    41  H          0.83110000       0.53380000       0.43600000
    42  H          0.16890000       0.46620000       0.56400000
    43  H          0.92780000       0.13490000       0.25210000
    44  H          0.07220000       0.86510000       0.74790000
    45  H          0.03820000      -0.00870000       0.20480000
    46  H          0.96180000       0.00870000       0.79520000
    47  H          0.87400000       0.04590000       0.16910000
    48  H          0.12600000       0.95410000       0.83090000
    49  H          0.15500000       0.61400000       0.25030000
    50  H          0.84500000       0.38600000       0.74970000
    51  H          0.17750000       0.76970000       0.18680000
    52  H          0.82250000       0.23030000       0.81320000
    53  H          0.01380000       0.61010000       0.10610000
    54  H          0.98620000       0.38990000       0.89390000
    55  H          0.32780000       0.65110000       0.06400000
    56  H          0.67220000       0.34890000       0.93600000
    57  H          0.30710000       0.55330000       0.00930000
    58  H          0.69290000       0.44670000      -0.00930000
    59  H          0.33520000       0.51250000       0.10320000
    60  H          0.66480000       0.48750000       0.89680000
    61  H          0.09580000       0.83070000       0.01850000
    62  H          0.90420000       0.16930000       0.98150000
    63  H          0.04180000       0.75120000       0.97450000
    64  H          0.95820000       0.24880000       0.02550000
    65  H          0.94070000       0.82140000       0.04780000
    66  H          0.05930000       0.17860000       0.95220000
    67  O          0.40176000       0.83625000       0.24274000
    68  O          0.59824000       0.16375000       0.75726000
    69  N          0.37547000       0.08476000       0.13564000
    70  N          0.62453000       0.91524000       0.86436000
    71  C          0.46821000       0.69687000       0.27005000
    72  C          0.53179000       0.30313000       0.72995000
    73  C          0.58849000       0.61988000       0.20756000
    74  C          0.41151000       0.38012000       0.79244000
    75  C          0.64571000       0.48068000       0.23126000
    76  C          0.35429000       0.51932000       0.76874000
    77  C          0.58631000       0.42058000       0.31716000
    78  C          0.41369000       0.57942000       0.68284000
    79  C          0.46841000       0.49758000       0.38086000
    80  C          0.53159000       0.50242000       0.61914000
    81  C          0.41041000       0.63928000       0.35545000
    82  C          0.58959000       0.36072000       0.64455000
    83  C          0.65051100       0.68439000       0.11386000
    84  C          0.34948900       0.31561000       0.88614000
    85  C          0.28261100       0.72509000       0.42326000
    86  C          0.71738900       0.27491000       0.57674000
    87  C          0.48681000       0.91417000       0.26816000
    88  C          0.51319000       0.08583000       0.73184000
    89  C          0.38661000       0.05868000       0.24135000
    90  C          0.61339000       0.94132000       0.75865000
    91  C          0.45641100       0.15828000       0.26306000
    92  C          0.54358900       0.84172000       0.73694000
    93  H          0.73100000       0.41840000       0.17920000
    94  H          0.26900000       0.58160000       0.82080000
    95  H          0.63440000       0.30830000       0.33650000
    96  H          0.36560000       0.69170000       0.66350000
    97  H          0.42290000       0.44490000       0.45050000
    98  H          0.57710000       0.55510000       0.54950000
    99  H          0.68910000       0.74500000       0.12440000
   100  H          0.31090000       0.25500000       0.87560000
   101  H          0.72530000       0.64240000       0.07110000
   102  H          0.27470000       0.35760000       0.92890000
   103  H          0.56840000       0.73070000       0.06050000
   104  H          0.43160000       0.26930000       0.93950000
   105  H          0.19600000       0.77380000       0.39170000
   106  H          0.80400000       0.22620000       0.60830000
   107  H          0.24090000       0.69470000       0.47730000
   108  H          0.75910000       0.30530000       0.52270000
   109  H          0.31720000       0.78700000       0.43580000
   110  H          0.68280000       0.21300000       0.56420000
   111  H          0.51040000       0.89070000       0.34070000
   112  H          0.48960000       0.10930000       0.65930000
   113  H          0.60960000       0.89480000       0.22040000
   114  H          0.39040000       0.10520000       0.77960000
   115  H          0.25920000       0.07630000       0.27900000
   116  H          0.74080000       0.92370000       0.72100000
   117  H          0.46950000       0.14400000       0.32380000
   118  H          0.53050000       0.85600000       0.67620000
   119  H          0.39910000       0.24150000       0.24900000
   120  H          0.60090000       0.75850000       0.75100000
   121  H          0.55430000       0.14610000       0.23180000
   122  H          0.44570000       0.85390000       0.76820000
   123  H          0.31440000       0.16780000       0.11860000
   124  H          0.68560000       0.83220000       0.88140000
   125  H          0.47100000       0.07240000       0.10330000
   126  H          0.52900000       0.92760000       0.89670000
   127  H          0.33450000       0.03140000       0.11870000
   128  H          0.66550000       0.96860000       0.88130000
