data_JOFWIM
_symmetry_space_group_name_H-M    'P1'
_symmetry_Int_Tables_number       1
loop_
_symmetry_equiv_pos_site_id
_symmetry_equiv_pos_as_xyz
1 x,y,z
_cell_length_a                   5.25756
_cell_length_b                   22.869516
_cell_length_c                   7.99179
_cell_angle_alpha                90.0
_cell_angle_beta                 90.61013
_cell_angle_gamma                90.0
loop_
_atom_site_label
_atom_site_type_symbol
_atom_site_fract_x
_atom_site_fract_y
_atom_site_fract_z
     1  C          0.59221000       0.24702000       0.55986000
     2  C          0.40779000       0.74702000       0.44014000
     3  O          0.37477000       0.22981180       0.58586000
     4  O          0.62523000       0.72981180       0.41414000
     5  N          0.79978000       0.21220170       0.58205000
     6  N          0.20022000       0.71220170       0.41795000
     7  H          0.94960000       0.22760000       0.56210000
     8  H          0.05040000       0.72760000       0.43790000
     9  C          0.79369000       0.15312000       0.63476000
    10  C          0.20631000       0.65312000       0.36524000
    11  C          0.60341000       0.11452000       0.58537000
    12  C          0.39659000       0.61452000       0.41463000
    13  H          0.46950000       0.12900000       0.51620000
    14  H          0.53050000       0.62900000       0.48380000
    15  N          0.59788000       0.05856190       0.62916000
    16  N          0.40212000       0.55856190       0.37084000
    17  C          0.79011100       0.03932000       0.72887000
    18  C          0.20988900       0.53932000       0.27113000
    19  H          0.78880000      -0.00050000       0.76340000
    20  H          0.21120000       0.49950000       0.23660000
    21  C         -0.01439000       0.07412000       0.78207000
    22  C          0.01439000       0.57412000       0.21793000
    23  H          0.11760000       0.05850000       0.85080000
    24  H          0.88240000       0.55850000       0.14920000
    25  C         -0.01039000       0.13172000       0.73506000
    26  C          0.01039000       0.63172000       0.26494000
    27  H          0.12440000       0.15650000       0.77050000
    28  H          0.87560000       0.65650000       0.22950000
    29  C          0.64269000       0.30822000       0.50656000
    30  C          0.35731000       0.80822000       0.49344000
    31  C          0.84909000       0.32462000       0.40836000
    32  C          0.15091000       0.82462000       0.59164000
    33  H          0.97000000       0.29610000       0.37540000
    34  H          0.03000000       0.79610000       0.62460000
    35  C          0.87831000       0.38212000       0.35887000
    36  C          0.12169000       0.88212000       0.64113000
    37  H          0.01830000       0.39260000       0.29090000
    38  H         -0.01830000       0.89260000       0.70910000
    39  C          0.70771000       0.42412000       0.40657000
    40  C          0.29229000       0.92412000       0.59343000
    41  H          0.73070000       0.46360000       0.37290000
    42  H          0.26930000       0.96360000       0.62710000
    43  C          0.50091100       0.40872000       0.50437000
    44  C          0.49908900       0.90872000       0.49563000
    45  H          0.38260000       0.43760000       0.53820000
    46  H          0.61740000       0.93760000       0.46180000
    47  C          0.46841000       0.35132000       0.55186000
    48  C          0.53159000       0.85132000       0.44814000
    49  H          0.32480000       0.34080000       0.61650000
    50  H          0.67520000       0.84080000       0.38350000
    51  C          0.10129000       0.24852000       0.04476000
    52  C          0.89871000       0.74852000       0.95524000
    53  O          0.88044000       0.22980160       0.05125000
    54  O          0.11956000       0.72980160       0.94875000
    55  N          0.30538000       0.21463170       0.08205000
    56  N          0.69462000       0.71463170       0.91795000
    57  H          0.45710000       0.23040000       0.07240000
    58  H          0.54290000       0.73040000       0.92760000
    59  C          0.29249000       0.15572000       0.13546000
    60  C          0.70751000       0.65572000       0.86454000
    61  C          0.48759000       0.11812000       0.08667000
    62  C          0.51241000       0.61812000       0.91333000
    63  H          0.61830000       0.13290000       0.01740000
    64  H          0.38170000       0.63290000      -0.01740000
    65  N          0.49749000       0.06232000       0.13346000
    66  N          0.50251000       0.56232000       0.86654000
    67  C          0.31431100       0.04252000       0.23037000
    68  C          0.68568900       0.54252000       0.76963000
    69  H          0.32200000       0.00290000       0.26590000
    70  H          0.67800000       0.50290000       0.73410000
    71  C          0.11221000       0.07632000       0.28257000
    72  C          0.88779000       0.57632000       0.71743000
    73  H         -0.01770000       0.05980000       0.34940000
    74  H          0.01770000       0.55980000       0.65060000
    75  C          0.10191000       0.13412000       0.23637000
    76  C          0.89809000       0.63412000       0.76363000
    77  H          0.96750000       0.15860000       0.27270000
    78  H          0.03250000       0.65860000       0.72730000
    79  C          0.15299000       0.31022000      -0.00516000
    80  C          0.84701000       0.81022000       0.00516000
    81  C          0.36269000       0.34222000       0.05186000
    82  C          0.63731000       0.84222000       0.94814000
    83  H          0.48910000       0.32370000       0.11890000
    84  H          0.51090000       0.82370000       0.88110000
    85  C          0.38791000       0.40052000       0.01176000
    86  C          0.61209000       0.90052000      -0.01176000
    87  H          0.52920000       0.42210000       0.05310000
    88  H          0.47080000       0.92210000       0.94690000
    89  C          0.20561000       0.42762000       0.90994000
    90  C          0.79439000       0.92762000       0.09006000
    91  H          0.22230000       0.46770000       0.88150000
    92  H          0.77770000       0.96770000       0.11850000
    93  C         -0.00011000       0.39552000       0.85093000
    94  C          0.00011000       0.89552000       0.14907000
    95  H          0.87690000       0.41350000       0.77990000
    96  H          0.12310000       0.91350000       0.22010000
    97  C          0.97311000       0.33812000       0.89454000
    98  C          0.02689000       0.83812000       0.10546000
    99  H          0.82900000       0.31690000       0.85560000
   100  H          0.17100000       0.81690000       0.14440000
