data_JOFWIM03
_symmetry_space_group_name_H-M    'P1'
_symmetry_Int_Tables_number       1
loop_
_symmetry_equiv_pos_site_id
_symmetry_equiv_pos_as_xyz
1 x,y,z
_cell_length_a                   24.0782
_cell_length_b                   5.23812
_cell_length_c                   15.927913
_cell_angle_alpha                90.0
_cell_angle_beta                 109.3829
_cell_angle_gamma                90.0
loop_
_atom_site_label
_atom_site_type_symbol
_atom_site_fract_x
_atom_site_fract_y
_atom_site_fract_z
     1  C          0.52255600       0.40503000       0.63491900
     2  C          0.47744400       0.40503000       0.86508100
     3  C          0.02255600       0.90503000       0.63491900
     4  C          0.97744400       0.90503000       0.86508100
     5  C          0.47744400       0.59497000       0.36508100
     6  C          0.52255600       0.59497000       0.13491900
     7  C          0.97744400       0.09497000       0.36508100
     8  C          0.02255600       0.09497000       0.13491900
     9  O          0.50703500       0.62712000       0.63864800
    10  O          0.49296500       0.62712000       0.86135200
    11  O          0.00703500       0.12712000       0.63864800
    12  O         -0.00703500       0.12712000       0.86135200
    13  O          0.49296500       0.37288000       0.36135200
    14  O          0.50703500       0.37288000       0.13864800
    15  O         -0.00703500       0.87288000       0.36135200
    16  O          0.00703500       0.87288000       0.13864800
    17  N          0.48626500       0.20222000       0.63022800
    18  N          0.51373500       0.20222000       0.86977200
    19  N          0.98626500       0.70222000       0.63022800
    20  N          0.01373500       0.70222000       0.86977200
    21  N          0.51373500       0.79778000       0.36977200
    22  N          0.48626500       0.79778000       0.13022800
    23  N          0.01373500       0.29778000       0.36977200
    24  N          0.98626500       0.29778000       0.13022800
    25  H          0.50120000       0.04860000       0.63080000
    26  H          0.49880000       0.04860000       0.86920000
    27  H          0.00120000       0.54860000       0.63080000
    28  H         -0.00120000       0.54860000       0.86920000
    29  H          0.49880000       0.95140000       0.36920000
    30  H          0.50120000       0.95140000       0.13080000
    31  H         -0.00120000       0.45140000       0.36920000
    32  H          0.00120000       0.45140000       0.13080000
    33  C          0.42650600       0.21923000       0.62450900
    34  C          0.57349400       0.21923000       0.87549100
    35  C          0.92650600       0.71923000       0.62450900
    36  C          0.07349400       0.71923000       0.87549100
    37  C          0.57349400       0.78077000       0.37549100
    38  C          0.42650600       0.78077000       0.12450900
    39  C          0.07349400       0.28077000       0.37549100
    40  C          0.92650600       0.28077000       0.12450900
    41  C          0.40278600       0.02333000       0.66088100
    42  C          0.59721400       0.02333000       0.83911900
    43  C          0.90278600       0.52333000       0.66088100
    44  C          0.09721400       0.52333000       0.83911900
    45  C          0.59721400      -0.02333000       0.33911900
    46  C          0.40278600      -0.02333000       0.16088100
    47  C          0.09721400       0.47667000       0.33911900
    48  C          0.90278600       0.47667000       0.16088100
    49  H          0.42820000       0.88950000       0.69120000
    50  H          0.57180000       0.88950000       0.80880000
    51  H          0.92820000       0.38950000       0.69120000
    52  H          0.07180000       0.38950000       0.80880000
    53  H          0.57180000       0.11050000       0.30880000
    54  H          0.42820000       0.11050000       0.19120000
    55  H          0.07180000       0.61050000       0.30880000
    56  H          0.92820000       0.61050000       0.19120000
    57  N          0.34623500       0.01292000       0.65553900
    58  N          0.65376500       0.01292000       0.84446100
    59  N          0.84623500       0.51292000       0.65553900
    60  N          0.15376500       0.51292000       0.84446100
    61  N          0.65376500      -0.01292000       0.34446100
    62  N          0.34623500      -0.01292000       0.15553900
    63  N          0.15376500       0.48708000       0.34446100
    64  N          0.84623500       0.48708000       0.15553900
    65  C          0.31180600       0.20583000       0.61397100
    66  C          0.68819400       0.20583000       0.88602900
    67  C          0.81180600       0.70583000       0.61397100
    68  C          0.18819400       0.70583000       0.88602900
    69  C          0.68819400       0.79417000       0.38602900
    70  C          0.31180600       0.79417000       0.11397100
    71  C          0.18819400       0.29417000       0.38602900
    72  C          0.81180600       0.29417000       0.11397100
    73  H          0.27160000       0.20310000       0.61020000
    74  H          0.72840000       0.20310000       0.88980000
    75  H          0.77160000       0.70310000       0.61020000
    76  H          0.22840000       0.70310000       0.88980000
    77  H          0.72840000       0.79690000       0.38980000
    78  H          0.27160000       0.79690000       0.11020000
    79  H          0.22840000       0.29690000       0.38980000
    80  H          0.77160000       0.29690000       0.11020000
    81  C          0.33135600       0.40883000       0.57617100
    82  C          0.66864400       0.40883000       0.92382900
    83  C          0.83135600       0.90883000       0.57617100
    84  C          0.16864400       0.90883000       0.92382900
    85  C          0.66864400       0.59117000       0.42382900
    86  C          0.33135600       0.59117000       0.07617100
    87  C          0.16864400       0.09117000       0.42382900
    88  C          0.83135600       0.09117000       0.07617100
    89  H          0.30510000       0.54170000       0.54740000
    90  H          0.69490000       0.54170000       0.95260000
    91  H          0.80510000       0.04170000       0.54740000
    92  H          0.19490000       0.04170000       0.95260000
    93  H          0.69490000       0.45830000       0.45260000
    94  H          0.30510000       0.45830000       0.04740000
    95  H          0.19490000       0.95830000       0.45260000
    96  H          0.80510000       0.95830000       0.04740000
    97  C          0.38987600       0.41663000       0.58062900
    98  C          0.61012400       0.41663000       0.91937100
    99  C          0.88987600       0.91663000       0.58062900
   100  C          0.11012400       0.91663000       0.91937100
   101  C          0.61012400       0.58337000       0.41937100
   102  C          0.38987600       0.58337000       0.08062900
   103  C          0.11012400       0.08337000       0.41937100
   104  C          0.88987600       0.08337000       0.08062900
   105  H          0.40440000       0.55280000       0.55440000
   106  H          0.59560000       0.55280000       0.94560000
   107  H          0.90440000       0.05280000       0.55440000
   108  H          0.09560000       0.05280000       0.94560000
   109  H          0.59560000       0.44720000       0.44560000
   110  H          0.40440000       0.44720000       0.05440000
   111  H          0.09560000       0.94720000       0.44560000
   112  H          0.90440000       0.94720000       0.05440000
   113  C          0.58305600       0.34133000       0.63514900
   114  C          0.41694400       0.34133000       0.86485100
   115  C          0.08305600       0.84133000       0.63514900
   116  C          0.91694400       0.84133000       0.86485100
   117  C          0.41694400       0.65867000       0.36485100
   118  C          0.58305600       0.65867000       0.13514900
   119  C          0.91694400       0.15867000       0.36485100
   120  C          0.08305600       0.15867000       0.13514900
   121  C          0.62849600       0.50803000       0.67894100
   122  C          0.37150400       0.50803000       0.82105900
   123  C          0.12849600       0.00803000       0.67894100
   124  C          0.87150400       0.00803000       0.82105900
   125  C          0.37150400       0.49197000       0.32105900
   126  C          0.62849600       0.49197000       0.17894100
   127  C          0.87150400      -0.00803000       0.32105900
   128  C          0.12849600      -0.00803000       0.17894100
   129  H          0.62060000       0.65270000       0.70920000
   130  H          0.37940000       0.65270000       0.79080000
   131  H          0.12060000       0.15270000       0.70920000
   132  H          0.87940000       0.15270000       0.79080000
   133  H          0.37940000       0.34730000       0.29080000
   134  H          0.62060000       0.34730000       0.20920000
   135  H          0.87940000       0.84730000       0.29080000
   136  H          0.12060000       0.84730000       0.20920000
   137  C          0.68497600       0.46353000       0.67856100
   138  C          0.31502400       0.46353000       0.82143900
   139  C          0.18497600       0.96353000       0.67856100
   140  C          0.81502400       0.96353000       0.82143900
   141  C          0.31502400       0.53647000       0.32143900
   142  C          0.68497600       0.53647000       0.17856100
   143  C          0.81502400       0.03647000       0.32143900
   144  C          0.18497600       0.03647000       0.17856100
   145  H          0.71590000       0.57640000       0.70930000
   146  H          0.28410000       0.57640000       0.79070000
   147  H          0.21590000       0.07640000       0.70930000
   148  H          0.78410000       0.07640000       0.79070000
   149  H          0.28410000       0.42360000       0.29070000
   150  H          0.71590000       0.42360000       0.20930000
   151  H          0.78410000       0.92360000       0.29070000
   152  H          0.21590000       0.92360000       0.20930000
   153  C          0.69671600       0.25513000       0.63358900
   154  C          0.30328400       0.25513000       0.86641100
   155  C          0.19671600       0.75513000       0.63358900
   156  C          0.80328400       0.75513000       0.86641100
   157  C          0.30328400       0.74487000       0.36641100
   158  C          0.69671600       0.74487000       0.13358900
   159  C          0.80328400       0.24487000       0.36641100
   160  C          0.19671600       0.24487000       0.13358900
   161  H          0.73550000       0.22640000       0.63270000
   162  H          0.26450000       0.22640000       0.86730000
   163  H          0.23550000       0.72640000       0.63270000
   164  H          0.76450000       0.72640000       0.86730000
   165  H          0.26450000       0.77360000       0.36730000
   166  H          0.73550000       0.77360000       0.13270000
   167  H          0.76450000       0.27360000       0.36730000
   168  H          0.23550000       0.27360000       0.13270000
   169  C          0.65157600       0.08863000       0.58986100
   170  C          0.34842400       0.08863000       0.91013900
   171  C          0.15157600       0.58863000       0.58986100
   172  C          0.84842400       0.58863000       0.91013900
   173  C          0.34842400       0.91137000       0.41013900
   174  C          0.65157600       0.91137000       0.08986100
   175  C          0.84842400       0.41137000       0.41013900
   176  C          0.15157600       0.41137000       0.08986100
   177  H          0.65950000       0.94540000       0.55900000
   178  H          0.34050000       0.94540000       0.94100000
   179  H          0.15950000       0.44540000       0.55900000
   180  H          0.84050000       0.44540000       0.94100000
   181  H          0.34050000       0.05460000       0.44100000
   182  H          0.65950000       0.05460000       0.05900000
   183  H          0.84050000       0.55460000       0.44100000
   184  H          0.15950000       0.55460000       0.05900000
   185  C          0.59512600       0.13013000       0.59103900
   186  C          0.40487400       0.13013000       0.90896100
   187  C          0.09512600       0.63013000       0.59103900
   188  C          0.90487400       0.63013000       0.90896100
   189  C          0.40487400       0.86987000       0.40896100
   190  C          0.59512600       0.86987000       0.09103900
   191  C          0.90487400       0.36987000       0.40896100
   192  C          0.09512600       0.36987000       0.09103900
   193  H          0.56450000       0.01420000       0.56160000
   194  H          0.43550000       0.01420000       0.93840000
   195  H          0.06450000       0.51420000       0.56160000
   196  H          0.93550000       0.51420000       0.93840000
   197  H          0.43550000      -0.01420000       0.43840000
   198  H          0.56450000      -0.01420000       0.06160000
   199  H          0.93550000       0.48580000       0.43840000
   200  H          0.06450000       0.48580000       0.06160000
