data_JOFWIM01
_symmetry_space_group_name_H-M    'P1'
_symmetry_Int_Tables_number       1
loop_
_symmetry_equiv_pos_site_id
_symmetry_equiv_pos_as_xyz
1 x,y,z
_cell_length_a                   3.94592
_cell_length_b                   22.73018
_cell_length_c                   11.19515
_cell_angle_alpha                90.0
_cell_angle_beta                 107.7254
_cell_angle_gamma                90.0
loop_
_atom_site_label
_atom_site_type_symbol
_atom_site_fract_x
_atom_site_fract_y
_atom_site_fract_z
     1  C          0.48844000       0.64234500       0.62165120
     2  C          0.51156000       0.14234500       0.87834880
     3  C          0.51156000       0.35765500       0.37834880
     4  C          0.48844000       0.85765500       0.12165120
     5  O          0.40873000       0.64294500       0.50702900
     6  O          0.59127000       0.14294500      -0.00702900
     7  O          0.59127000       0.35705500       0.49297100
     8  O          0.40873000       0.85705500       0.00702900
     9  N          0.66263000       0.68768400       0.69455900
    10  N          0.33737000       0.18768400       0.80544100
    11  N          0.33737000       0.31231600       0.30544100
    12  N          0.66263000       0.81231600       0.19455900
    13  H          0.70000000       0.68430000       0.77590000
    14  H          0.30000000       0.18430000       0.72410000
    15  H          0.30000000       0.31570000       0.22410000
    16  H          0.70000000       0.81570000       0.27590000
    17  C          0.78903000       0.73935500       0.65330110
    18  C          0.21097000       0.23935500       0.84669890
    19  C          0.21097000       0.26064500       0.34669890
    20  C          0.78903000       0.76064500       0.15330110
    21  C          0.74814000       0.75233500       0.52785120
    22  C          0.25186000       0.25233500       0.97214880
    23  C          0.25186000       0.24766500       0.47214880
    24  C          0.74814000       0.74766500       0.02785120
    25  H          0.62730000       0.72480000       0.46570000
    26  H          0.37270000       0.22480000       0.03430000
    27  H          0.37270000       0.27520000       0.53430000
    28  H          0.62730000       0.77520000       0.96570000
    29  N          0.87143000       0.80185500       0.49105100
    30  N          0.12857000       0.30185500       0.00894900
    31  N          0.12857000       0.19814500       0.50894900
    32  N          0.87143000       0.69814500      -0.00894900
    33  C          0.04144000       0.84021600       0.57906120
    34  C         -0.04144000       0.34021600       0.92093880
    35  C         -0.04144000       0.15978400       0.42093880
    36  C          0.04144000       0.65978400       0.07906120
    37  H          0.12840000       0.87550000       0.55360000
    38  H          0.87160000       0.37550000       0.94640000
    39  H          0.87160000       0.12450000       0.44640000
    40  H          0.12840000       0.62450000       0.05360000
    41  C          0.09684000       0.83100600       0.70571120
    42  C          0.90316000       0.33100600       0.79428880
    43  C          0.90316000       0.16899400       0.29428880
    44  C          0.09684000       0.66899400       0.20571120
    45  H          0.22090000       0.85920000       0.76580000
    46  H          0.77910000       0.35920000       0.73420000
    47  H          0.77910000       0.14080000       0.23420000
    48  H          0.22090000       0.64080000       0.26580000
    49  C         -0.03126000       0.78015500       0.74295120
    50  C          0.03126000       0.28015500       0.75704880
    51  C          0.03126000       0.21984500       0.25704880
    52  C         -0.03126000       0.71984500       0.24295120
    53  H          0.00280000       0.77290000       0.82940000
    54  H         -0.00280000       0.27290000       0.67060000
    55  H         -0.00280000       0.22710000       0.17060000
    56  H          0.00280000       0.72710000       0.32940000
    57  C          0.40263000       0.59012500       0.68873120
    58  C          0.59737000       0.09012500       0.81126880
    59  C          0.59737000       0.40987500       0.31126880
    60  C          0.40263000       0.90987500       0.18873120
    61  C          0.36654000       0.59180500       0.80833120
    62  C          0.63346000       0.09180500       0.69166880
    63  C          0.63346000       0.40819500       0.19166880
    64  C          0.36654000       0.90819500       0.30833120
    65  H          0.39560000       0.62790000       0.85320000
    66  H          0.60440000       0.12790000       0.64680000
    67  H          0.60440000       0.37210000       0.14680000
    68  H          0.39560000       0.87210000       0.35320000
    69  C          0.28784000       0.54063600       0.86200130
    70  C          0.71216000       0.04063600       0.63799870
    71  C          0.71216000       0.45936400       0.13799870
    72  C          0.28784000       0.95936400       0.36200130
    73  H          0.26010000       0.54190000       0.94330000
    74  H          0.73990000       0.04190000       0.55670000
    75  H          0.73990000       0.45810000       0.05670000
    76  H          0.26010000       0.95810000       0.44330000
    77  C          0.24954000       0.48792600       0.79821140
    78  C          0.75046000       0.98792600       0.70178860
    79  C          0.75046000       0.51207400       0.20178860
    80  C          0.24954000       0.01207400       0.29821140
    81  H          0.20050000       0.45290000       0.83640000
    82  H          0.79950000       0.95290000       0.66360000
    83  H          0.79950000       0.54710000       0.16360000
    84  H          0.20050000       0.04710000       0.33640000
    85  C          0.28244000       0.48594600       0.67899140
    86  C          0.71756000       0.98594600       0.82100860
    87  C          0.71756000       0.51405400       0.32100860
    88  C          0.28244000       0.01405400       0.17899140
    89  H          0.25520000       0.44970000       0.63480000
    90  H          0.74480000       0.94970000       0.86520000
    91  H          0.74480000       0.55030000       0.36520000
    92  H          0.25520000       0.05030000       0.13480000
    93  C          0.35514000       0.53695600       0.62421130
    94  C          0.64486000       0.03695600       0.87578870
    95  C          0.64486000       0.46304400       0.37578870
    96  C          0.35514000       0.96304400       0.12421130
    97  H          0.37280000       0.53570000       0.54150000
    98  H          0.62720000       0.03570000       0.95850000
    99  H          0.62720000       0.46430000       0.45850000
   100  H          0.37280000       0.96430000       0.04150000
