data_JOGVEJ01
_symmetry_space_group_name_H-M    'P1'
_symmetry_Int_Tables_number       1
loop_
_symmetry_equiv_pos_site_id
_symmetry_equiv_pos_as_xyz
1 x,y,z
_cell_length_a                   13.4122
_cell_length_b                   14.7233
_cell_length_c                   13.4292
_cell_angle_alpha                90.0
_cell_angle_beta                 104.6665
_cell_angle_gamma                90.0
loop_
_atom_site_label
_atom_site_type_symbol
_atom_site_fract_x
_atom_site_fract_y
_atom_site_fract_z
     1  S          0.06854120       0.25097130       0.29619120
     2  S          0.43145880       0.75097130       0.20380880
     3  S          0.93145880       0.74902870       0.70380880
     4  S          0.56854120       0.24902870       0.79619120
     5  S          0.08244130       0.21776110       0.15097120
     6  S          0.41755870       0.71776110       0.34902880
     7  S          0.91755870       0.78223890       0.84902880
     8  S          0.58244130       0.28223890       0.65097120
     9  N          0.19434000       0.24944000       0.34734000
    10  N          0.30566000       0.74944000       0.15266000
    11  N          0.80566000       0.75056000       0.65266000
    12  N          0.69434000       0.25056000       0.84734000
    13  N          0.20884000       0.21264000       0.18454000
    14  N          0.29116000       0.71264000       0.31546000
    15  N          0.79116000       0.78736000       0.81546000
    16  N          0.70884000       0.28736000       0.68454000
    17  C          0.25195000       0.22894000       0.28314000
    18  C          0.24805000       0.72894000       0.21686000
    19  C          0.74805000       0.77106000       0.71686000
    20  C          0.75195000       0.27106000       0.78314000
    21  C          0.36704000       0.22144000       0.32434000
    22  C          0.13296000       0.72144000       0.17566000
    23  C          0.63296000       0.77856000       0.67566000
    24  C          0.86704000       0.27856000       0.82434000
    25  C          0.41255000       0.13534000       0.34044000
    26  C          0.08745000       0.63534000       0.15956000
    27  C          0.58745000       0.86466000       0.65956000
    28  C          0.91255000       0.36466000       0.84044000
    29  C          0.35575000       0.05354000       0.32255000
    30  C          0.14425000       0.55354000       0.17745000
    31  C          0.64425000       0.94646000       0.67745000
    32  C          0.85575000       0.44646000       0.82255000
    33  H          0.28288200       0.05591000       0.29763700
    34  H          0.21711800       0.55591000       0.20236300
    35  H          0.71711800       0.94409000       0.70236300
    36  H          0.78288200       0.44409000       0.79763700
    37  C          0.40326000       0.97136000       0.34025000
    38  C          0.09674000       0.47136000       0.15975000
    39  C          0.59674000       0.02864000       0.65975000
    40  C          0.90326000       0.52864000       0.84025000
    41  H          0.36321900       0.91731600       0.32951000
    42  H          0.13678100       0.41731600       0.17049000
    43  H          0.63678100       0.08268400       0.67049000
    44  H          0.86321900       0.58268400       0.82951000
    45  C          0.51365000       0.96596000       0.37516000
    46  C          0.98635000       0.46596000       0.12484000
    47  C          0.48635000       0.03404000       0.62484000
    48  C          0.01365000       0.53404000       0.87516000
    49  H          0.54661700       0.90848700       0.38515600
    50  H          0.95338300       0.40848700       0.11484400
    51  H          0.45338300       0.09151300       0.61484400
    52  H          0.04661700       0.59151300       0.88515600
    53  C          0.56975000       0.04214000       0.39335000
    54  C          0.93025000       0.54214000       0.10665000
    55  C          0.43025000       0.95786000       0.60665000
    56  C          0.06975000       0.45786000       0.89335000
    57  H          0.64250800       0.03726600       0.41661200
    58  H          0.85749200       0.53726600       0.08338800
    59  H          0.35749200       0.96273400       0.58338800
    60  H          0.14250800       0.46273400       0.91661200
    61  C          0.52425000       0.13024000       0.37895000
    62  C          0.97575000       0.63024000       0.12105000
    63  C          0.47575000       0.86976000       0.62105000
    64  C          0.02425000       0.36976000       0.87895000
    65  C          0.58175000       0.20844000       0.39945000
    66  C          0.91825000       0.70844000       0.10055000
    67  C          0.41825000       0.79156000       0.60055000
    68  C          0.08175000       0.29156000       0.89945000
    69  H          0.65447300       0.20385200       0.42419500
    70  H          0.84552700       0.70385200       0.07580500
    71  H          0.34552700       0.79614800       0.57580500
    72  H          0.15447300       0.29614800       0.92419500
    73  C          0.53635000       0.29414000       0.38484000
    74  C          0.96365000       0.79414000       0.11516000
    75  C          0.46365000       0.70586000       0.61516000
    76  C          0.03635000       0.20586000       0.88484000
    77  C          0.59556000       0.37595000       0.40885000
    78  C          0.90444000       0.87595000       0.09115000
    79  C          0.40444000       0.62405000       0.59115000
    80  C          0.09556000       0.12405000       0.90885000
    81  H          0.66819600       0.37222300       0.43476100
    82  H          0.83180400       0.87222300       0.06523900
    83  H          0.33180400       0.62777700       0.56523900
    84  H          0.16819600       0.12777700       0.93476100
    85  C          0.54956000       0.45794000       0.39495000
    86  C          0.95044000       0.95794000       0.10505000
    87  C          0.45044000       0.54206000       0.60505000
    88  C          0.04956000       0.04206000       0.89495000
    89  H          0.58995300       0.51138300       0.41136400
    90  H          0.91004700       0.01138300       0.08863600
    91  H          0.41004700       0.48861700       0.58863600
    92  H          0.08995300       0.98861700       0.91136400
    93  C          0.43996000       0.46525000       0.35545000
    94  C          0.06004000       0.96525000       0.14455000
    95  C          0.56004000       0.53475000       0.64455000
    96  C          0.93996000       0.03475000       0.85545000
    97  H          0.40819500       0.52338000       0.34551100
    98  H          0.09180500       0.02338000       0.15448900
    99  H          0.59180500       0.47662000       0.65448900
   100  H          0.90819500       0.97662000       0.84551100
   101  C          0.38135000       0.38924000       0.33224000
   102  C          0.11865000       0.88924000       0.16776000
   103  C          0.61865000       0.61076000       0.66776000
   104  C          0.88135000       0.11076000       0.83224000
   105  H          0.30887600       0.39541200       0.30643800
   106  H          0.19112400       0.89541200       0.19356200
   107  H          0.69112400       0.60458800       0.69356200
   108  H          0.80887600       0.10458800       0.80643800
   109  C          0.42455000       0.30124000       0.34514000
   110  C          0.07545000       0.80124000       0.15486000
   111  C          0.57545000       0.69876000       0.65486000
   112  C          0.92455000       0.19876000       0.84514000
   113  S          0.31415130       0.26705120       0.54878120
   114  S          0.18584870       0.76705120       0.95121880
   115  S          0.68584870       0.73294880       0.45121880
   116  S          0.81415130       0.23294880       0.04878120
   117  S          0.16679130       0.30677120       0.55836120
   118  S          0.33320870       0.80677120       0.94163880
   119  S          0.83320870       0.69322880       0.44163880
   120  S          0.66679130       0.19322880       0.05836120
   121  N          0.36464000       0.27474000       0.67314000
   122  N          0.13536000       0.77474000       0.82686000
   123  N          0.63536000       0.72526000       0.32686000
   124  N          0.86464000       0.22526000       0.17314000
   125  N          0.19904000       0.31684000       0.68304000
   126  N          0.30096000       0.81684000       0.81696000
   127  N          0.80096000       0.68316000       0.31696000
   128  N          0.69904000       0.18316000       0.18304000
   129  C          0.29815000       0.29984000       0.72594000
   130  C          0.20185000       0.79984000       0.77406000
   131  C          0.70185000       0.70016000       0.27406000
   132  C          0.79815000       0.20016000       0.22594000
   133  C          0.33574000       0.30294000       0.84084000
   134  C          0.16426000       0.80294000       0.65916000
   135  C          0.66426000       0.69706000       0.15916000
   136  C          0.83574000       0.19706000       0.34084000
   137  C          0.35504000       0.22234000       0.89554000
   138  C          0.14496000       0.72234000       0.60446000
   139  C          0.64496000       0.77766000       0.10446000
   140  C          0.85504000       0.27766000       0.39554000
   141  C          0.34965000       0.13384000       0.84795000
   142  C          0.15035000       0.63384000       0.65205000
   143  C          0.65035000       0.86616000       0.15205000
   144  C          0.84965000       0.36616000       0.34795000
   145  H          0.33238200       0.12931300       0.77494000
   146  H          0.16761800       0.62931300       0.72506000
   147  H          0.66761800       0.87068700       0.22506000
   148  H          0.83238200       0.37068700       0.27494000
   149  C          0.36855000       0.05745000       0.90515000
   150  C          0.13145000       0.55745000       0.59485000
   151  C          0.63145000       0.94255000       0.09485000
   152  C          0.86855000       0.44255000       0.40515000
   153  H          0.36451400       0.00006300       0.87189100
   154  H          0.13548600       0.50006300       0.62810900
   155  H          0.63548600      -0.00006300       0.12810900
   156  H          0.86451400       0.49993700       0.37189100
   157  C          0.39435000       0.06155000       0.01445000
   158  C          0.10565000       0.56155000       0.48555000
   159  C          0.60565000       0.93845000       0.98555000
   160  C          0.89435000       0.43845000       0.51445000
   161  H          0.40577800       0.00726900       0.05400800
   162  H          0.09422200       0.50726900       0.44599200
   163  H          0.59422200      -0.00726900       0.94599200
   164  H          0.90577800       0.49273100       0.55400800
   165  C          0.40235000       0.14305000       0.06115000
   166  C          0.09765000       0.64305000       0.43885000
   167  C          0.59765000       0.85695000       0.93885000
   168  C          0.90235000       0.35695000       0.56115000
   169  H          0.42090500       0.14539900       0.13417300
   170  H          0.07909500       0.64539900       0.36582700
   171  H          0.57909500       0.85460100       0.86582700
   172  H          0.92090500       0.35460100       0.63417300
   173  C          0.38405000       0.22524000       0.00495000
   174  C          0.11595000       0.72524000       0.49505000
   175  C          0.61595000       0.77476000      -0.00495000
   176  C          0.88405000       0.27476000       0.50495000
   177  C          0.39115000       0.31014000       0.05325000
   178  C          0.10885000       0.81014000       0.44675000
   179  C          0.60885000       0.68986000       0.94675000
   180  C          0.89115000       0.18986000       0.55325000
   181  H          0.40786800       0.31194700       0.12631700
   182  H          0.09213200       0.81194700       0.37368300
   183  H          0.59213200       0.68805300       0.87368300
   184  H          0.90786800       0.18805300       0.62631700
   185  C          0.37515000       0.39044000       0.00034000
   186  C          0.12485000       0.89044000       0.49966000
   187  C          0.62485000       0.60956000      -0.00034000
   188  C          0.87515000       0.10956000       0.50034000
   189  C          0.38425000       0.47724000       0.04905000
   190  C          0.11575000       0.97724000       0.45095000
   191  C          0.61575000       0.52276000       0.95095000
   192  C          0.88425000       0.02276000       0.54905000
   193  H          0.39951200       0.48020100       0.12197200
   194  H          0.10048800       0.98020100       0.37802800
   195  H          0.60048800       0.51979900       0.87802800
   196  H          0.89951200       0.01979900       0.62197200
   197  C          0.37195000       0.55454000      -0.00495000
   198  C          0.12805000       0.05454000       0.50495000
   199  C          0.62805000       0.44546000       0.00495000
   200  C          0.87195000       0.94546000       0.49505000
   201  H          0.38062900       0.61107500       0.03014200
   202  H          0.11937100       0.11107500       0.46985800
   203  H          0.61937100       0.38892500       0.96985800
   204  H          0.88062900       0.88892500       0.53014200
   205  C          0.34615000       0.55294000       0.88585000
   206  C          0.15385000       0.05294000       0.61415000
   207  C          0.65385000       0.44706000       0.11415000
   208  C          0.84615000       0.94706000       0.38585000
   209  H          0.33745500       0.60828700       0.84822000
   210  H          0.16254500       0.10828700       0.65178000
   211  H          0.66254500       0.39171300       0.15178000
   212  H          0.83745500       0.89171300       0.34822000
   213  C          0.33375000       0.47284000       0.83545000
   214  C          0.16625000       0.97284000       0.66455000
   215  C          0.66625000       0.52716000       0.16455000
   216  C          0.83375000       0.02716000       0.33545000
   217  H          0.31609300       0.47264200       0.76229900
   218  H          0.18390700       0.97264200       0.73770100
   219  H          0.68390700       0.52735800       0.23770100
   220  H          0.81609300       0.02735800       0.26229900
   221  C          0.34624000       0.38834000       0.88914000
   222  C          0.15376000       0.88834000       0.61086000
   223  C          0.65376000       0.61166000       0.11086000
   224  C          0.84624000       0.11166000       0.38914000
