data_JOGVEJ
_symmetry_space_group_name_H-M    'P1'
_symmetry_Int_Tables_number       1
loop_
_symmetry_equiv_pos_site_id
_symmetry_equiv_pos_as_xyz
1 x,y,z
_cell_length_a                   14.702711
_cell_length_b                   10.71417
_cell_length_c                   8.28715
_cell_angle_alpha                90.0
_cell_angle_beta                 98.7714
_cell_angle_gamma                90.0
loop_
_atom_site_label
_atom_site_type_symbol
_atom_site_fract_x
_atom_site_fract_y
_atom_site_fract_z
     1  S          0.26323130       0.41207150       0.77257170
     2  S          0.73676870       0.91207150       0.72742830
     3  S          0.73676870       0.58792850       0.22742830
     4  S          0.26323130       0.08792850       0.27257170
     5  S          0.28740140       0.25331150       0.64218180
     6  S          0.71259860       0.75331150       0.85781820
     7  S          0.71259860       0.74668850       0.35781820
     8  S          0.28740140       0.24668850       0.14218180
     9  N          0.25034000       0.50435000       0.61376000
    10  N          0.74966000       0.00435000       0.88624000
    11  N          0.74966000       0.49565000       0.38624000
    12  N          0.25034000      -0.00435000       0.11376000
    13  N          0.27834000       0.32715000       0.46636000
    14  N          0.72166000       0.82715000       0.03364000
    15  N          0.72166000       0.67285000       0.53364000
    16  N          0.27834000       0.17285000       0.96636000
    17  C          0.25774000       0.44735000       0.47387000
    18  C          0.74226000       0.94735000       0.02613000
    19  C          0.74226000       0.55265000       0.52613000
    20  C          0.25774000       0.05265000       0.97387000
    21  C          0.24475000       0.52205000       0.32177000
    22  C          0.75525000       0.02205000       0.17823000
    23  C          0.75525000       0.47795000       0.67823000
    24  C          0.24475000       0.97795000       0.82177000
    25  C          0.32034000       0.55915000       0.24736000
    26  C          0.67966000       0.05915000       0.25264000
    27  C          0.67966000       0.44085000       0.75264000
    28  C          0.32034000       0.94085000       0.74736000
    29  C          0.41355000       0.52136000       0.31188000
    30  C          0.58645000       0.02136000       0.18812000
    31  C          0.58645000       0.47864000       0.68812000
    32  C          0.41355000       0.97864000       0.81188000
    33  H          0.42454700       0.47138000       0.40461600
    34  H          0.57545300       0.97138000       0.09538400
    35  H          0.57545300       0.52862000       0.59538400
    36  H          0.42454700       0.02862000       0.90461600
    37  C          0.48445000       0.55907000       0.23628000
    38  C          0.51555000       0.05907000       0.26372000
    39  C          0.51555000       0.44093000       0.76372000
    40  C          0.48445000       0.94093000       0.73628000
    41  H          0.54385200       0.53257600       0.27617000
    42  H          0.45614800       0.03257600       0.22383000
    43  H          0.45614800       0.46742400       0.72383000
    44  H          0.54385200       0.96742400       0.77617000
    45  C          0.46966000       0.63748000       0.09829000
    46  C          0.53034000       0.13748000       0.40171000
    47  C          0.53034000       0.36252000       0.90171000
    48  C          0.46966000       0.86252000       0.59829000
    49  H          0.51960500       0.66481600       0.05134200
    50  H          0.48039500       0.16481600       0.44865800
    51  H          0.48039500       0.33518400       0.94865800
    52  H          0.51960500       0.83518400       0.55134200
    53  C          0.38306000       0.67387000       0.03248000
    54  C          0.61694000       0.17387000       0.46752000
    55  C          0.61694000       0.32613000       0.96752000
    56  C          0.38306000       0.82613000       0.53248000
    57  H          0.37422900       0.72320900       0.93911700
    58  H          0.62577100       0.22320900       0.56088300
    59  H          0.62577100       0.27679100       0.06088300
    60  H          0.37422900       0.77679100       0.43911700
    61  C          0.30575000       0.63616000       0.10657000
    62  C          0.69425000       0.13616000       0.39343000
    63  C          0.69425000       0.36384000       0.89343000
    64  C          0.30575000       0.86384000       0.60657000
    65  C          0.21655000       0.67256000       0.04128000
    66  C          0.78345000       0.17256000       0.45872000
    67  C          0.78345000       0.32744000       0.95872000
    68  C          0.21655000       0.82744000       0.54128000
    69  H          0.20745400       0.72251900       0.94840800
    70  H          0.79254600       0.22251900       0.55159200
    71  H          0.79254600       0.27748100       0.05159200
    72  H          0.20745400       0.77748100       0.44840800
    73  C          0.14075000       0.63566000       0.11197000
    74  C          0.85925000       0.13566000       0.38803000
    75  C          0.85925000       0.36434000       0.88803000
    76  C          0.14075000       0.86434000       0.61197000
    77  C          0.04896000       0.67336000       0.04568000
    78  C          0.95104000       0.17336000       0.45432000
    79  C          0.95104000       0.32664000       0.95432000
    80  C          0.04896000       0.82664000       0.54568000
    81  H          0.03946100       0.72548800       0.95499500
    82  H          0.96053900       0.22548800       0.54500500
    83  H          0.96053900       0.27451200       0.04500500
    84  H          0.03946100       0.77451200       0.45499500
    85  C          0.97594000       0.63367000       0.11378000
    86  C          0.02406000       0.13367000       0.38622000
    87  C          0.02406000       0.36633000       0.88622000
    88  C          0.97594000       0.86633000       0.61378000
    89  H          0.91714200       0.66096200       0.07136200
    90  H          0.08285800       0.16096200       0.42863800
    91  H          0.08285800       0.33903800       0.92863800
    92  H          0.91714200       0.83903800       0.57136200
    93  C          0.98815000       0.55197000       0.24708000
    94  C          0.01185000       0.05197000       0.25292000
    95  C          0.01185000       0.44803000       0.75292000
    96  C          0.98815000       0.94803000       0.74708000
    97  H          0.93702100       0.52202500       0.28835000
    98  H          0.06297900       0.02202500       0.21165000
    99  H          0.06297900       0.47797500       0.71165000
   100  H          0.93702100       0.97797500       0.78835000
   101  C          0.07525000       0.51506000       0.31808000
   102  C          0.92475000       0.01506000       0.18192000
   103  C          0.92475000       0.48494000       0.68192000
   104  C          0.07525000       0.98494000       0.81808000
   105  H          0.08244400       0.46298200       0.40886300
   106  H          0.91755600       0.96298200       0.09113700
   107  H          0.91755600       0.53701800       0.59113700
   108  H          0.08244400       0.03701800       0.90886300
   109  C          0.15394000       0.55695000       0.25176000
   110  C          0.84606000       0.05695000       0.24824000
   111  C          0.84606000       0.44305000       0.74824000
   112  C          0.15394000       0.94305000       0.75176000
