data_JOGVEJ07
_symmetry_space_group_name_H-M    'P1'
_symmetry_Int_Tables_number       1
loop_
_symmetry_equiv_pos_site_id
_symmetry_equiv_pos_as_xyz
1 x,y,z
_cell_length_a                   10.20543
_cell_length_b                   7.90742
_cell_length_c                   15.60844
_cell_angle_alpha                90.0
_cell_angle_beta                 100.06901
_cell_angle_gamma                90.0
loop_
_atom_site_label
_atom_site_type_symbol
_atom_site_fract_x
_atom_site_fract_y
_atom_site_fract_z
     1  S          0.86933900       0.92758120       0.15648700
     2  S          0.13066100       0.42758120       0.34351300
     3  S          0.13066100       0.07241880       0.84351300
     4  S          0.86933900       0.57241880       0.65648700
     5  S         -0.01036900       0.77018130       0.24425700
     6  S          0.01036900       0.27018130       0.25574300
     7  S          0.01036900       0.22981870       0.75574300
     8  S         -0.01036900       0.72981870       0.74425700
     9  N          0.89843000       0.60074000       0.21632000
    10  N          0.10157000       0.10074000       0.28368000
    11  N          0.10157000       0.39926000       0.78368000
    12  N          0.89843000       0.89926000       0.71632000
    13  N          0.76603000       0.77744000       0.11682000
    14  N          0.23397000       0.27744000       0.38318000
    15  N          0.23397000       0.22256000       0.88318000
    16  N          0.76603000       0.72256000       0.61682000
    17  C          0.79454000       0.62535000       0.15343000
    18  C          0.20546000       0.12535000       0.34657000
    19  C          0.20546000       0.37465000       0.84657000
    20  C          0.79454000       0.87465000       0.65343000
    21  C          0.70564000       0.48285000       0.11773000
    22  C          0.29436000      -0.01715000       0.38227000
    23  C          0.29436000       0.51715000       0.88227000
    24  C          0.70564000       0.01715000       0.61773000
    25  C          0.74964000       0.36475000       0.06172000
    26  C          0.25036000       0.86475000       0.43828000
    27  C          0.25036000       0.63525000       0.93828000
    28  C          0.74964000       0.13525000       0.56172000
    29  C          0.88364000       0.36275000       0.04383000
    30  C          0.11636000       0.86275000       0.45617000
    31  C          0.11636000       0.63725000       0.95617000
    32  C          0.88364000       0.13725000       0.54383000
    33  H          0.94539100       0.44085100       0.07085100
    34  H          0.05460900       0.94085100       0.42914900
    35  H          0.05460900       0.55914900       0.92914900
    36  H          0.94539100       0.05914900       0.57085100
    37  C          0.92024000       0.24875000       0.98827000
    38  C          0.07976000       0.74875000       0.51173000
    39  C          0.07976000       0.75125000       0.01173000
    40  C          0.92024000       0.25125000       0.48827000
    41  H          0.00767300       0.24831600       0.97884600
    42  H         -0.00767300       0.74831600       0.52115400
    43  H         -0.00767300       0.75168400       0.02115400
    44  H          0.00767300       0.25168400       0.47884600
    45  C          0.82864000       0.12876000       0.94367000
    46  C          0.17136000       0.62876000       0.55633000
    47  C          0.17136000       0.87124000       0.05633000
    48  C          0.82864000       0.37124000       0.44367000
    49  H          0.85629000       0.05097000       0.90588800
    50  H          0.14371000       0.55097000       0.59411200
    51  H          0.14371000       0.94903000       0.09411200
    52  H          0.85629000       0.44903000       0.40588800
    53  C          0.69994000       0.12855000       0.95687000
    54  C          0.30006000       0.62855000       0.54313000
    55  C          0.30006000       0.87145000       0.04313000
    56  C          0.69994000       0.37145000       0.45687000
    57  H          0.63941800       0.05258000       0.92653800
    58  H          0.36058200       0.55258000       0.57346200
    59  H          0.36058200       0.94742000       0.07346200
    60  H          0.63941800       0.44742000       0.42653800
    61  C          0.65704000       0.24405000       0.01713000
    62  C          0.34296000       0.74405000       0.48287000
    63  C          0.34296000       0.75595000       0.98287000
    64  C          0.65704000       0.25595000       0.51713000
    65  C          0.52544000       0.24605000       0.03033000
    66  C          0.47456000       0.74605000       0.46967000
    67  C          0.47456000       0.75395000       0.96967000
    68  C          0.52544000       0.25395000       0.53033000
    69  H          0.46456700       0.17138800      -0.00085800
    70  H          0.53543300       0.67138800       0.50085800
    71  H          0.53543300       0.82861200       0.00085800
    72  H          0.46456700       0.32861200       0.49914200
    73  C          0.48264000       0.35725000       0.08922000
    74  C          0.51736000       0.85725000       0.41078000
    75  C          0.51736000       0.64275000       0.91078000
    76  C          0.48264000       0.14275000       0.58922000
    77  C          0.34834000       0.35845000       0.10313000
    78  C          0.65166000       0.85845000       0.39687000
    79  C          0.65166000       0.64155000       0.89687000
    80  C          0.34834000       0.14155000       0.60313000
    81  H          0.28718000       0.28320900       0.07260300
    82  H          0.71282000       0.78320900       0.42739700
    83  H          0.71282000       0.71679100       0.92739700
    84  H          0.28718000       0.21679100       0.57260300
    85  C          0.30854000       0.46806000       0.16033000
    86  C          0.69146000       0.96806000       0.33967000
    87  C          0.69146000       0.53194000       0.83967000
    88  C          0.30854000       0.03194000       0.66033000
    89  H          0.22046800       0.46687200       0.16873000
    90  H          0.77953200       0.96687200       0.33127000
    91  H          0.77953200       0.53312800       0.83127000
    92  H          0.22046800       0.03312800       0.66873000
    93  C          0.39914000       0.58366000       0.20723000
    94  C          0.60086000       0.08366000       0.29277000
    95  C          0.60086000       0.41634000       0.79277000
    96  C          0.39914000       0.91634000       0.70723000
    97  H          0.37041700       0.65611600       0.24703700
    98  H          0.62958300       0.15611600       0.25296300
    99  H          0.62958300       0.34388400       0.75296300
   100  H          0.37041700       0.84388400       0.74703700
   101  C          0.52834000       0.59085000       0.19493000
   102  C          0.47166000       0.09085000       0.30507000
   103  C          0.47166000       0.40915000       0.80507000
   104  C          0.52834000       0.90915000       0.69493000
   105  H          0.58652700       0.66875000       0.22577900
   106  H          0.41347300       0.16875000       0.27422100
   107  H          0.41347300       0.33125000       0.77422100
   108  H          0.58652700       0.83125000       0.72577900
   109  C          0.57424000       0.47855000       0.13453000
   110  C          0.42576000       0.97855000       0.36547000
   111  C          0.42576000       0.52145000       0.86547000
   112  C          0.57424000       0.02145000       0.63453000
