data_JOHGEU01
_symmetry_space_group_name_H-M    'P1'
_symmetry_Int_Tables_number       1
loop_
_symmetry_equiv_pos_site_id
_symmetry_equiv_pos_as_xyz
1 x,y,z
_cell_length_a                   4.26596
_cell_length_b                   10.493614
_cell_length_c                   13.381416
_cell_angle_alpha                108.22612
_cell_angle_beta                 93.89312
_cell_angle_gamma                90.29112
loop_
_atom_site_label
_atom_site_type_symbol
_atom_site_fract_x
_atom_site_fract_y
_atom_site_fract_z
     1  I          0.74485500       0.81036200       0.94284816
     2  I          0.25514500       0.18963800       0.05715184
     3  Cl         0.38352000       0.17375900       0.47599700
     4  Cl         0.61648000       0.82624100       0.52400300
     5  Cl         0.85267000       0.07047110       0.79543800
     6  Cl         0.14733000       0.92952890       0.20456200
     7  Cl         0.71828000       0.38025110       0.89295700
     8  Cl         0.28172000       0.61974890       0.10704300
     9  O          0.27145000       0.44922000       0.58597150
    10  O          0.72855000       0.55078000       0.41402850
    11  C          0.51917000       0.71953000       0.80303000
    12  C          0.48083000       0.28047000       0.19697000
    13  C          0.38017000       0.66273000       0.72233000
    14  C          0.61983000       0.33727000       0.27767000
    15  C          0.20197000       0.58913000       0.62232000
    16  C          0.79803000       0.41087000       0.37768000
    17  H         -0.02120000       0.59830000       0.63190000
    18  H          0.02120000       0.40170000       0.36810000
    19  H          0.24960000       0.62930000       0.56880000
    20  H          0.75040000       0.37070000       0.43120000
    21  C          0.16346000       0.36853000       0.63862000
    22  C          0.83654000       0.63147000       0.36138000
    23  C          0.21287000       0.23203000       0.59492000
    24  C          0.78713000       0.76797000       0.40508000
    25  C          0.11838000       0.14173000       0.64373000
    26  C          0.88162000       0.85827000       0.35627000
    27  H          0.15650000       0.05080000       0.61450000
    28  H          0.84350000       0.94920000       0.38550000
    29  C         -0.03298000       0.18613000       0.73603000
    30  C          0.03298000       0.81387000       0.26397000
    31  C          0.91053000       0.32053000       0.77852000
    32  C          0.08947000       0.67947000       0.22148000
    33  C          0.00827000       0.41193000       0.73072000
    34  C         -0.00827000       0.58807000       0.26928000
    35  H         -0.03050000       0.50270000       0.76030000
    36  H          0.03050000       0.49730000       0.23970000
