data_JOHGEU02
_symmetry_space_group_name_H-M    'P1'
_symmetry_Int_Tables_number       1
loop_
_symmetry_equiv_pos_site_id
_symmetry_equiv_pos_as_xyz
1 x,y,z
_cell_length_a                   31.1005
_cell_length_b                   5.38077
_cell_length_c                   13.8612
_cell_angle_alpha                90.0
_cell_angle_beta                 107.0505
_cell_angle_gamma                90.0
loop_
_atom_site_label
_atom_site_type_symbol
_atom_site_fract_x
_atom_site_fract_y
_atom_site_fract_z
     1  I          0.55316400       0.50208160       0.38794700
     2  I          0.44683600       0.50208160       0.11205300
     3  I          0.05316400       0.00208160       0.38794700
     4  I          0.94683600       0.00208160       0.11205300
     5  I          0.44683600       0.49791840       0.61205300
     6  I          0.55316400       0.49791840       0.88794700
     7  I          0.94683600      -0.00208160       0.61205300
     8  I          0.05316400      -0.00208160       0.88794700
     9  Cl         0.35308150       0.87703000       0.05473000
    10  Cl         0.64691850       0.87703000       0.44527000
    11  Cl         0.85308150       0.37703000       0.05473000
    12  Cl         0.14691850       0.37703000       0.44527000
    13  Cl         0.64691850       0.12297000       0.94527000
    14  Cl         0.35308150       0.12297000       0.55473000
    15  Cl         0.14691850       0.62297000       0.94527000
    16  Cl         0.85308150       0.62297000       0.55473000
    17  Cl         0.25968160       0.62798000       0.14853000
    18  Cl         0.74031840       0.62798000       0.35147000
    19  Cl         0.75968160       0.12798000       0.14853000
    20  Cl         0.24031840       0.12798000       0.35147000
    21  Cl         0.74031840       0.37202000       0.85147000
    22  Cl         0.25968160       0.37202000       0.64853000
    23  Cl         0.24031840       0.87202000       0.85147000
    24  Cl         0.75968160       0.87202000       0.64853000
    25  Cl         0.32934170       0.64677000       0.36863000
    26  Cl         0.67065830       0.64677000       0.13137000
    27  Cl         0.82934170       0.14677000       0.36863000
    28  Cl         0.17065830       0.14677000       0.13137000
    29  Cl         0.67065830       0.35323000       0.63137000
    30  Cl         0.32934170       0.35323000       0.86863000
    31  Cl         0.17065830       0.85323000       0.63137000
    32  Cl         0.82934170       0.85323000       0.86863000
    33  C          0.50385000       0.25630000       0.38169000
    34  C          0.49615000       0.25630000       0.11831000
    35  C          0.00385000       0.75630000       0.38169000
    36  C         -0.00385000       0.75630000       0.11831000
    37  C          0.49615000       0.74370000       0.61831000
    38  C          0.50385000       0.74370000       0.88169000
    39  C         -0.00385000       0.24370000       0.61831000
    40  C          0.00385000       0.24370000       0.88169000
    41  C          0.47555000       0.10830000       0.37259000
    42  C          0.52445000       0.10830000       0.12741000
    43  C          0.97555000       0.60830000       0.37259000
    44  C          0.02445000       0.60830000       0.12741000
    45  C          0.52445000       0.89170000       0.62741000
    46  C          0.47555000       0.89170000       0.87259000
    47  C          0.02445000       0.39170000       0.62741000
    48  C          0.97555000       0.39170000       0.87259000
    49  C          0.44146000       0.91370000       0.35851000
    50  C          0.55854000       0.91370000       0.14149000
    51  C          0.94146000       0.41370000       0.35851000
    52  C          0.05854000       0.41370000       0.14149000
    53  C          0.55854000       0.08630000       0.64149000
    54  C          0.44146000       0.08630000       0.85851000
    55  C          0.05854000       0.58630000       0.64149000
    56  C          0.94146000       0.58630000       0.85851000
    57  H          0.45600000       0.75310000       0.37000000
    58  H          0.54400000       0.75310000       0.13000000
    59  H          0.95600000       0.25310000       0.37000000
    60  H          0.04400000       0.25310000       0.13000000
    61  H          0.54400000       0.24690000       0.63000000
    62  H          0.45600000       0.24690000       0.87000000
    63  H          0.04400000       0.74690000       0.63000000
    64  H          0.95600000       0.74690000       0.87000000
    65  H          0.42520000       0.93620000       0.40800000
    66  H          0.57480000       0.93620000       0.09200000
    67  H          0.92520000       0.43620000       0.40800000
    68  H          0.07480000       0.43620000       0.09200000
    69  H          0.57480000       0.06380000       0.59200000
    70  H          0.42520000       0.06380000       0.90800000
    71  H          0.07480000       0.56380000       0.59200000
    72  H          0.92520000       0.56380000       0.90800000
    73  O          0.41004000       0.91858200       0.25967000
    74  O          0.58996000       0.91858200       0.24033000
    75  O          0.91004000       0.41858200       0.25967000
    76  O          0.08996000       0.41858200       0.24033000
    77  O          0.58996000       0.08141800       0.74033000
    78  O          0.41004000       0.08141800       0.75967000
    79  O          0.08996000       0.58141800       0.74033000
    80  O          0.91004000       0.58141800       0.75967000
    81  C          0.37605000       0.09320000       0.23759000
    82  C          0.62395000       0.09320000       0.26241000
    83  C          0.87605000       0.59320000       0.23759000
    84  C          0.12395000       0.59320000       0.26241000
    85  C          0.62395000       0.90680000       0.76241000
    86  C          0.37605000       0.90680000       0.73759000
    87  C          0.12395000       0.40680000       0.76241000
    88  C          0.87605000       0.40680000       0.73759000
    89  C          0.34685000       0.09020000       0.14171000
    90  C          0.65315000       0.09020000       0.35829000
    91  C          0.84685000       0.59020000       0.14171000
    92  C          0.15315000       0.59020000       0.35829000
    93  C          0.65315000       0.90980000       0.85829000
    94  C          0.34685000       0.90980000       0.64171000
    95  C          0.15315000       0.40980000       0.85829000
    96  C          0.84685000       0.40980000       0.64171000
    97  C          0.31055000       0.25320000       0.11649000
    98  C          0.68945000       0.25320000       0.38351000
    99  C          0.81055000       0.75320000       0.11649000
   100  C          0.18945000       0.75320000       0.38351000
   101  C          0.68945000       0.74680000       0.88351000
   102  C          0.31055000       0.74680000       0.61649000
   103  C          0.18945000       0.24680000       0.88351000
   104  C          0.81055000       0.24680000       0.61649000
   105  H          0.29020000       0.24610000       0.05200000
   106  H          0.70980000       0.24610000       0.44800000
   107  H          0.79020000       0.74610000       0.05200000
   108  H          0.20980000       0.74610000       0.44800000
   109  H          0.70980000       0.75390000       0.94800000
   110  H          0.29020000       0.75390000       0.55200000
   111  H          0.20980000       0.25390000       0.94800000
   112  H          0.79020000       0.25390000       0.55200000
   113  C          0.30405000       0.42230000       0.18351000
   114  C          0.69595000       0.42230000       0.31649000
   115  C          0.80405000       0.92230000       0.18351000
   116  C          0.19595000       0.92230000       0.31649000
   117  C          0.69595000       0.57770000       0.81649000
   118  C          0.30405000       0.57770000       0.68351000
   119  C          0.19595000       0.07770000       0.81649000
   120  C          0.80405000       0.07770000       0.68351000
   121  C          0.33455000       0.43620000       0.27951000
   122  C          0.66545000       0.43620000       0.22049000
   123  C          0.83455000       0.93620000       0.27951000
   124  C          0.16545000       0.93620000       0.22049000
   125  C          0.66545000       0.56380000       0.72049000
   126  C          0.33455000       0.56380000       0.77951000
   127  C          0.16545000       0.06380000       0.72049000
   128  C          0.83455000       0.06380000       0.77951000
   129  C          0.37145000       0.26920000       0.30599000
   130  C          0.62855000       0.26920000       0.19401000
   131  C          0.87145000       0.76920000       0.30599000
   132  C          0.12855000       0.76920000       0.19401000
   133  C          0.62855000       0.73080000       0.69401000
   134  C          0.37145000       0.73080000       0.80599000
   135  C          0.12855000       0.23080000       0.69401000
   136  C          0.87145000       0.23080000       0.80599000
   137  H          0.39240000       0.27910000       0.36920000
   138  H          0.60760000       0.27910000       0.13080000
   139  H          0.89240000       0.77910000       0.36920000
   140  H          0.10760000       0.77910000       0.13080000
   141  H          0.60760000       0.72090000       0.63080000
   142  H          0.39240000       0.72090000       0.86920000
   143  H          0.10760000       0.22090000       0.63080000
   144  H          0.89240000       0.22090000       0.86920000
