data_JOHGEU
_symmetry_space_group_name_H-M    'P1'
_symmetry_Int_Tables_number       1
loop_
_symmetry_equiv_pos_site_id
_symmetry_equiv_pos_as_xyz
1 x,y,z
_cell_length_a                   22.1732
_cell_length_b                   7.68707
_cell_length_c                   13.830813
_cell_angle_alpha                90.0
_cell_angle_beta                 109.1814
_cell_angle_gamma                90.0
loop_
_atom_site_label
_atom_site_type_symbol
_atom_site_fract_x
_atom_site_fract_y
_atom_site_fract_z
     1  I          0.20904512       0.67262700       0.22445918
     2  I          0.79095488       0.67262700       0.27554082
     3  I          0.70904512       0.17262700       0.22445918
     4  I          0.29095488       0.17262700       0.27554082
     5  I          0.79095488       0.32737300       0.77554082
     6  I          0.20904512       0.32737300       0.72445918
     7  I          0.29095488       0.82737300       0.77554082
     8  I          0.70904512       0.82737300       0.72445918
     9  Cl         0.11823500       0.52520120       0.43812110
    10  Cl         0.88176500       0.52520120       0.06187890
    11  Cl         0.61823500       0.02520120       0.43812110
    12  Cl         0.38176500       0.02520120       0.06187890
    13  Cl         0.88176500       0.47479880       0.56187890
    14  Cl         0.11823500       0.47479880       0.93812110
    15  Cl         0.38176500       0.97479880       0.56187890
    16  Cl         0.61823500       0.97479880       0.93812110
    17  Cl         0.88949600       0.20836140       0.32414800
    18  Cl         0.11050400       0.20836140       0.17585200
    19  Cl         0.38949600       0.70836140       0.32414800
    20  Cl         0.61050400       0.70836140       0.17585200
    21  Cl         0.11050400       0.79163860       0.67585200
    22  Cl         0.88949600       0.79163860       0.82414800
    23  Cl         0.61050400       0.29163860       0.67585200
    24  Cl         0.38949600       0.29163860       0.82414800
    25  Cl         0.95905600       0.84512890       0.34991700
    26  Cl         0.04094400       0.84512890       0.15008300
    27  Cl         0.45905600       0.34512890       0.34991700
    28  Cl         0.54094400       0.34512890       0.15008300
    29  Cl         0.04094400       0.15487110       0.65008300
    30  Cl         0.95905600       0.15487110       0.84991700
    31  Cl         0.54094400       0.65487110       0.65008300
    32  Cl         0.45905600       0.65487110       0.84991700
    33  O          0.17007900       0.18143000       0.46161170
    34  O          0.82992100       0.18143000       0.03838830
    35  O          0.67007900       0.68143000       0.46161170
    36  O          0.32992100       0.68143000       0.03838830
    37  O          0.82992100       0.81857000       0.53838830
    38  O          0.17007900       0.81857000       0.96161170
    39  O          0.32992100       0.31857000       0.53838830
    40  O          0.67007900       0.31857000       0.96161170
    41  C          0.20656140       0.82136000       0.33982000
    42  C          0.79343860       0.82136000       0.16018000
    43  C          0.70656140       0.32136000       0.33982000
    44  C          0.29343860       0.32136000       0.16018000
    45  C          0.79343860       0.17864000       0.66018000
    46  C          0.20656140       0.17864000       0.83982000
    47  C          0.29343860       0.67864000       0.66018000
    48  C          0.70656140       0.67864000       0.83982000
    49  C          0.20548130       0.91136000       0.40882000
    50  C          0.79451870       0.91136000       0.09118000
    51  C          0.70548130       0.41136000       0.40882000
    52  C          0.29451870       0.41136000       0.09118000
    53  C          0.79451870       0.08864000       0.59118000
    54  C          0.20548130       0.08864000       0.90882000
    55  C          0.29451870       0.58864000       0.59118000
    56  C          0.70548130       0.58864000       0.90882000
    57  C          0.20354130       0.02254000       0.49412000
    58  C          0.79645870       0.02254000       0.00588000
    59  C          0.70354130       0.52254000       0.49412000
    60  C          0.29645870       0.52254000       0.00588000
    61  C          0.79645870       0.97746000       0.50588000
    62  C          0.20354130       0.97746000      -0.00588000
    63  C          0.29645870       0.47746000       0.50588000
    64  C          0.70354130       0.47746000      -0.00588000
    65  H          0.18320000       0.95890000       0.53560000
    66  H          0.81680000       0.95890000       0.96440000
    67  H          0.68320000       0.45890000       0.53560000
    68  H          0.31680000       0.45890000       0.96440000
    69  H          0.81680000       0.04110000       0.46440000
    70  H          0.18320000       0.04110000       0.03560000
    71  H          0.31680000       0.54110000       0.46440000
    72  H          0.68320000       0.54110000       0.03560000
    73  H          0.24690000       0.04860000       0.53680000
    74  H          0.75310000       0.04860000       0.96320000
    75  H          0.74690000       0.54860000       0.53680000
    76  H          0.25310000       0.54860000       0.96320000
    77  H          0.75310000       0.95140000       0.46320000
    78  H          0.24690000       0.95140000       0.03680000
    79  H          0.25310000       0.45140000       0.46320000
    80  H          0.74690000       0.45140000       0.03680000
    81  C          0.10483120       0.17773000       0.42842000
    82  C          0.89516880       0.17773000       0.07158000
    83  C          0.60483120       0.67773000       0.42842000
    84  C          0.39516880       0.67773000       0.07158000
    85  C          0.89516880       0.82227000       0.57158000
    86  C          0.10483120       0.82227000       0.92842000
    87  C          0.39516880       0.32227000       0.57158000
    88  C          0.60483120       0.32227000       0.92842000
    89  C          0.07408150       0.33694000       0.41553000
    90  C          0.92591850       0.33694000       0.08447000
    91  C          0.57408150       0.83694000       0.41553000
    92  C          0.42591850       0.83694000       0.08447000
    93  C          0.92591850       0.66306000       0.58447000
    94  C          0.07408150       0.66306000       0.91553000
    95  C          0.42591850       0.16306000       0.58447000
    96  C          0.57408150       0.16306000       0.91553000
    97  C          0.00777160       0.34544000       0.38383000
    98  C         -0.00777160       0.34544000       0.11617000
    99  C          0.50777160       0.84544000       0.38383000
   100  C          0.49222840       0.84544000       0.11617000
   101  C         -0.00777160       0.65456000       0.61617000
   102  C          0.00777160       0.65456000       0.88383000
   103  C          0.49222840       0.15456000       0.61617000
   104  C          0.50777160       0.15456000       0.88383000
   105  H          0.98750000       0.45290000       0.37580000
   106  H          0.01250000       0.45290000       0.12420000
   107  H          0.48750000       0.95290000       0.37580000
   108  H          0.51250000       0.95290000       0.12420000
   109  H          0.01250000       0.54710000       0.62420000
   110  H          0.98750000       0.54710000       0.87580000
   111  H          0.51250000       0.04710000       0.62420000
   112  H          0.48750000       0.04710000       0.87580000
   113  C          0.97181860       0.19344000       0.36422000
   114  C          0.02818140       0.19344000       0.13578000
   115  C          0.47181860       0.69344000       0.36422000
   116  C          0.52818140       0.69344000       0.13578000
   117  C          0.02818140       0.80656000       0.63578000
   118  C          0.97181860       0.80656000       0.86422000
   119  C          0.52818140       0.30656000       0.63578000
   120  C          0.47181860       0.30656000       0.86422000
   121  C          0.00203130       0.03504000       0.37582000
   122  C         -0.00203130       0.03504000       0.12418000
   123  C          0.50203130       0.53504000       0.37582000
   124  C          0.49796870       0.53504000       0.12418000
   125  C         -0.00203130       0.96496000       0.62418000
   126  C          0.00203130       0.96496000       0.87582000
   127  C          0.49796870       0.46496000       0.62418000
   128  C          0.50203130       0.46496000       0.87582000
   129  C          0.06874130       0.02584000       0.40802000
   130  C          0.93125870       0.02584000       0.09198000
   131  C          0.56874130       0.52584000       0.40802000
   132  C          0.43125870       0.52584000       0.09198000
   133  C          0.93125870       0.97416000       0.59198000
   134  C          0.06874130       0.97416000       0.90802000
   135  C          0.43125870       0.47416000       0.59198000
   136  C          0.56874130       0.47416000       0.90802000
   137  H          0.08890000       0.91820000       0.41570000
   138  H          0.91110000       0.91820000       0.08430000
   139  H          0.58890000       0.41820000       0.41570000
   140  H          0.41110000       0.41820000       0.08430000
   141  H          0.91110000       0.08180000       0.58430000
   142  H          0.08890000       0.08180000       0.91570000
   143  H          0.41110000       0.58180000       0.58430000
   144  H          0.58890000       0.58180000       0.91570000
