data_KAMDUA02
_symmetry_space_group_name_H-M    'P1'
_symmetry_Int_Tables_number       1
loop_
_symmetry_equiv_pos_site_id
_symmetry_equiv_pos_as_xyz
1 x,y,z
_cell_length_a                   7.7736
_cell_length_b                   6.2565
_cell_length_c                   52.724
_cell_angle_alpha                90.0
_cell_angle_beta                 92.952
_cell_angle_gamma                90.0
loop_
_atom_site_label
_atom_site_type_symbol
_atom_site_fract_x
_atom_site_fract_y
_atom_site_fract_z
     1  O          0.63163000       0.16734000       0.74949400
     2  O          0.86837000       0.66734000       0.75050600
     3  O          0.36837000       0.83266000       0.25050600
     4  O          0.13163000       0.33266000       0.24949400
     5  C          0.52814000       0.48205000       0.72698600
     6  C          0.97186000      -0.01795000       0.77301400
     7  C          0.47186000       0.51795000       0.27301400
     8  C          0.02814000       0.01795000       0.22698600
     9  C          0.46864000       0.67855000       0.76328600
    10  C          0.03136000       0.17855000       0.73671400
    11  C          0.53136000       0.32145000       0.23671400
    12  C          0.96864000       0.82145000       0.26328600
    13  C          0.57504000       0.34906000       0.74953600
    14  C          0.92496000       0.84906000       0.75046400
    15  C          0.42496000       0.65094000       0.25046400
    16  C          0.07504000       0.15094000       0.24953600
    17  C          0.46254000       0.67845000       0.73518600
    18  C          0.03746000       0.17845000       0.76481400
    19  C          0.53746000       0.32155000       0.26481400
    20  C          0.96254000       0.82155000       0.23518600
    21  C          0.47694000       0.52475000       0.65620600
    22  C          0.02306000       0.02475000       0.84379400
    23  C          0.52306000       0.47525000       0.34379400
    24  C          0.97694000       0.97525000       0.15620600
    25  C          0.53524000       0.43236000       0.70187600
    26  C          0.96476000       0.93236000       0.79812400
    27  C          0.46476000       0.56764000       0.29812400
    28  C          0.03524000       0.06764000       0.20187600
    29  H          0.57784400       0.30034700       0.69704400
    30  H          0.92215600       0.80034700       0.80295600
    31  H          0.42215600       0.69965300       0.30295600
    32  H          0.07784400       0.19965300       0.19704400
    33  C          0.53674000       0.48265000       0.77165600
    34  C          0.96326000      -0.01735000       0.72834400
    35  C          0.46326000       0.51735000       0.22834400
    36  C          0.03674000       0.01735000       0.27165600
    37  C          0.51664000       0.52545000       0.84249600
    38  C         -0.01664000       0.02545000       0.65750400
    39  C          0.48336000       0.47455000       0.15750400
    40  C          0.01664000       0.97455000       0.34249600
    41  C          0.47094000       0.41136000       0.60402600
    42  C          0.02906000       0.91136000       0.89597400
    43  C          0.52906000       0.58864000       0.39597400
    44  C          0.97094000       0.08864000       0.10402600
    45  C          0.53154000       0.40936000       0.89453600
    46  C          0.96846000       0.90936000       0.60546400
    47  C          0.46846000       0.59064000       0.10546400
    48  C          0.03154000       0.09064000       0.39453600
    49  C          0.42044000       0.82586000       0.78095600
    50  C          0.07956000       0.32586000       0.71904400
    51  C          0.57956000       0.17414000       0.21904400
    52  C          0.92044000       0.67414000       0.28095600
    53  H          0.37611400       0.95778000       0.77577100
    54  H          0.12388600       0.45778000       0.72422900
    55  H          0.62388600       0.04222000       0.22422900
    56  H          0.87611400       0.54222000       0.27577100
    57  C          0.55554000       0.43176000       0.79688600
    58  C          0.94446000       0.93176000       0.70311400
    59  C          0.44446000       0.56824000       0.20311400
    60  C          0.05554000       0.06824000       0.29688600
    61  H          0.60156900       0.30028800       0.80193300
    62  H          0.89843100       0.80028800       0.69806700
    63  H          0.39843100       0.69971200       0.19806700
    64  H          0.10156900       0.19971200       0.30193300
    65  C          0.50464000       0.57946000       0.81504600
    66  C         -0.00464000       0.07946000       0.68495400
    67  C          0.49536000       0.42054000       0.18495400
    68  C          0.00464000       0.92054000       0.31504600
    69  C          0.43834000       0.77596000       0.80632600
    70  C          0.06166000       0.27596000       0.69367400
    71  C          0.56166000       0.22404000       0.19367400
    72  C          0.93834000       0.72404000       0.30632600
    73  H          0.40519100       0.87623900       0.81814200
    74  H          0.09480900       0.37623900       0.68185800
    75  H          0.59480900       0.12376100       0.18185800
    76  H          0.90519100       0.62376100       0.31814200
    77  C          0.41404000       0.77476000       0.69189600
    78  C          0.08596000       0.27476000       0.80810400
    79  C          0.58596000       0.22524000       0.30810400
    80  C          0.91404000       0.72524000       0.19189600
    81  H          0.37409600       0.87426400       0.67987700
    82  H          0.12590400       0.37426400       0.82012300
    83  H          0.62590400       0.12573600       0.32012300
    84  H          0.87409600       0.62573600       0.17987700
    85  C          0.47824000       0.57975000       0.68343600
    86  C          0.02176000       0.07975000       0.81656400
    87  C          0.52176000       0.42025000       0.31656400
    88  C          0.97824000       0.92025000       0.18343600
    89  C          0.53795000       0.34577000       0.92160700
    90  C          0.96205000       0.84577000       0.57839300
    91  C          0.46205000       0.65423000       0.07839300
    92  C          0.03795000       0.15423000       0.42160700
    93  C          0.40734000       0.82566000       0.71736600
    94  C          0.09266000       0.32566000       0.78263400
    95  C          0.59266000       0.17434000       0.28263400
    96  C          0.90734000       0.67434000       0.21736600
    97  H          0.36589700       0.95786100       0.72229800
    98  H          0.13410300       0.45786100       0.77770200
    99  H          0.63410300       0.04213900       0.27770200
   100  H          0.86589700       0.54213900       0.22229800
   101  C          0.46515000       0.34747000       0.57694700
   102  C          0.03485000       0.84747000       0.92305300
   103  C          0.53485000       0.65253000       0.42305300
   104  C          0.96515000       0.15253000       0.07694700
   105  C          0.58235000       0.36947000       0.64707700
   106  C          0.91765000       0.86947000       0.85292300
   107  C          0.41765000       0.63053000       0.35292300
   108  C          0.08235000       0.13053000       0.14707700
   109  H          0.65909600       0.29946300       0.65834600
   110  H          0.84090400       0.79946300       0.84165400
   111  H          0.34090400       0.70053700       0.34165400
   112  H          0.15909600       0.20053700       0.15834600
   113  C          0.41876000       0.62747000       0.85990700
   114  C          0.08124000       0.12747000       0.64009300
   115  C          0.58124000       0.37253000       0.14009300
   116  C          0.91876000       0.87253000       0.35990700
   117  H          0.34473900       0.73678500       0.85444800
   118  H          0.15526100       0.23678500       0.64555200
   119  H          0.65526100       0.26321500       0.14555200
   120  H          0.84473900       0.76321500       0.35444800
   121  C          0.37065000       0.62527000       0.63837700
   122  C          0.12935000       0.12527000       0.86162300
   123  C          0.62935000       0.37473000       0.36162300
   124  C          0.87065000       0.87473000       0.13837700
   125  H          0.29835000       0.73379600       0.64347700
   126  H          0.20165000       0.23379600       0.85652300
   127  H          0.70165000       0.26620400       0.35652300
   128  H          0.79835000       0.76620400       0.14347700
   129  C          0.42806000       0.57097000       0.88519700
   130  C          0.07194000       0.07097000       0.61480300
   131  C          0.57194000       0.42903000       0.11480300
   132  C          0.92806000       0.92903000       0.38519700
   133  H          0.36125100       0.64558700       0.89635300
   134  H          0.13874900       0.14558700       0.60364700
   135  H          0.63874900       0.35441300       0.10364700
   136  H          0.86125100       0.85441300       0.39635300
   137  C          0.36805000       0.56937000       0.61314700
   138  C          0.13195000       0.06937000       0.88685300
   139  C          0.63195000       0.43063000       0.38685300
   140  C          0.86805000       0.93063000       0.11314700
   141  H          0.29345500       0.64150900       0.60175500
   142  H          0.20654500       0.14150900       0.89824500
   143  H          0.70654500       0.35849100       0.39824500
   144  H          0.79345500       0.85849100       0.10175500
   145  C          0.57806000       0.31377000       0.62174700
   146  C          0.92194000       0.81377000       0.87825300
   147  C          0.42194000       0.68623000       0.37825300
   148  C          0.07806000       0.18623000       0.12174700
   149  H          0.65058300       0.20573500       0.61657200
   150  H          0.84941700       0.70573500       0.88342800
   151  H          0.34941700       0.79426500       0.38342800
   152  H          0.15058300       0.29426500       0.11657200
   153  C          0.62515000       0.36927000       0.85179700
   154  C          0.87485000       0.86927000       0.64820300
   155  C          0.37485000       0.63073000       0.14820300
   156  C          0.12515000       0.13073000       0.35179700
   157  H          0.69630500       0.29969400       0.84078800
   158  H          0.80369500       0.79969400       0.65921200
   159  H          0.30369500       0.70030600       0.15921200
   160  H          0.19630500       0.20030600       0.34078800
   161  C          0.63206000       0.31217000       0.87705700
   162  C          0.86794000       0.81217000       0.62294300
   163  C          0.36794000       0.68783000       0.12294300
   164  C          0.13206000       0.18783000       0.37705700
   165  H          0.70715100       0.20390900       0.88252500
   166  H          0.79284900       0.70390900       0.61747500
   167  H          0.29284900       0.79609100       0.11747500
   168  H          0.20715100       0.29609100       0.38252500
   169  C          0.54858000       0.22681100       0.97238900
   170  C          0.95142000       0.72681100       0.52761100
   171  C          0.45142000       0.77318900       0.02761100
   172  C          0.04858000       0.27318900       0.47238900
   173  H          0.55386100       0.18826200       0.98943700
   174  H          0.94613900       0.68826200       0.51056300
   175  H          0.44613900       0.81173800       0.01056300
   176  H          0.05386100       0.31173800       0.48943700
   177  C          0.46567000       0.47188000       0.93967700
   178  C          0.03433000       0.97188000       0.56032300
   179  C          0.53433000       0.52812000       0.06032300
   180  C          0.96567000       0.02812000       0.43967700
   181  H          0.41287200       0.59999600       0.93485200
   182  H          0.08712800       0.09999600       0.56514800
   183  H          0.58712800       0.40000400       0.06514800
   184  H          0.91287200       0.90000400       0.43485200
   185  C          0.38628000       0.41811000       0.53309900
   186  C          0.11372000       0.91811000       0.96690100
   187  C          0.61372000       0.58189000       0.46690100
   188  C          0.88628000       0.08189000       0.03309900
   189  H          0.33344200       0.50646600       0.52082200
   190  H          0.16655800       0.00646600       0.97917800
   191  H          0.66655800       0.49353400       0.47917800
   192  H          0.83344200      -0.00646600       0.02082200
   193  C          0.53556000       0.15848000       0.56889800
   194  C          0.96444000       0.65848000       0.93110200
   195  C          0.46444000       0.84152000       0.43110200
   196  C          0.03556000       0.34152000       0.06889800
   197  H          0.58685300       0.06660200       0.58091900
   198  H          0.91314700       0.56660200       0.91908100
   199  H          0.41314700       0.93339800       0.41908100
   200  H          0.08685300       0.43339800       0.08091900
   201  C          0.39116000       0.47878000       0.55839700
   202  C          0.10884000      -0.02122000       0.94160300
   203  C          0.60884000       0.52122000       0.44160300
   204  C          0.89116000       0.02122000       0.05839700
   205  H          0.34399900       0.60901900       0.56291600
   206  H          0.15600100       0.10901900       0.93708400
   207  H          0.65600100       0.39098100       0.43708400
   208  H          0.84399900       0.89098100       0.06291600
   209  C          0.61216000       0.15828000       0.92983800
   210  C          0.88784000       0.65828000       0.57016200
   211  C          0.38784000       0.84172000       0.07016200
   212  C          0.11216000       0.34172000       0.42983800
   213  H          0.65948800       0.06758900       0.91806300
   214  H          0.84051200       0.56758900       0.58193700
   215  H          0.34051200       0.93241100       0.08193700
   216  H          0.15948800       0.43241100       0.41806300
   217  C          0.45738000       0.23221100       0.52613100
   218  C          0.04262000       0.73221100       0.97386900
   219  C          0.54262000       0.76778900       0.47386900
   220  C          0.95738000       0.26778900       0.02613100
   221  H          0.45465800       0.19400600       0.50906700
   222  H          0.04534200       0.69400600       0.99093300
   223  H          0.54534200       0.80599400       0.49093300
   224  H          0.95465800       0.30599400       0.00906700
   225  C          0.61867000       0.09971000       0.95507100
   226  C          0.88133000       0.59971000       0.54492900
   227  C          0.38133000       0.90029000       0.04492900
   228  C          0.11867000       0.40029000       0.45507100
   229  H          0.67158000       0.97230500       0.96015600
   230  H          0.82842000       0.47230500       0.53984400
   231  H          0.32842000       0.02769500       0.03984400
   232  H          0.17158000       0.52769500       0.46015600
   233  C          0.53238000       0.10101000       0.54374100
   234  C          0.96762000       0.60101000       0.95625900
   235  C          0.46762000       0.89899000       0.45625900
   236  C          0.03238000       0.39899000       0.04374100
   237  H          0.58145200       0.97276700       0.53887700
   238  H          0.91854800       0.47276700       0.96112300
   239  H          0.41854800       0.02723300       0.46112300
   240  H          0.08145200       0.52723300       0.03887700
   241  C          0.47058000       0.40971100       0.96488900
   242  C          0.02942000       0.90971100       0.53511100
   243  C          0.52942000       0.59028900       0.03511100
   244  C          0.97058000       0.09028900       0.46488900
   245  H          0.41936600       0.49547700       0.97677200
   246  H          0.08063400      -0.00452300       0.52322800
   247  H          0.58063400       0.50452300       0.02322800
   248  H          0.91936600       0.00452300       0.47677200
