data_KAMDUA
_symmetry_space_group_name_H-M    'P1'
_symmetry_Int_Tables_number       1
loop_
_symmetry_equiv_pos_site_id
_symmetry_equiv_pos_as_xyz
1 x,y,z
_cell_length_a                   51.85122
_cell_length_b                   6.6292
_cell_length_c                   7.24023
_cell_angle_alpha                90.0
_cell_angle_beta                 90.0
_cell_angle_gamma                90.0
loop_
_atom_site_label
_atom_site_type_symbol
_atom_site_fract_x
_atom_site_fract_y
_atom_site_fract_z
     1  O          0.50000000       0.26443000       0.19133000
     2  O          0.50000000       0.73557000       0.69133000
     3  O         -0.00000000       0.76443000       0.19133000
     4  O         -0.00000000       0.23557000       0.69133000
     5  C          0.51438300       0.24453000       0.66693000
     6  C          0.48561700       0.75547000       0.16693000
     7  C          0.51438300       0.75547000       0.16693000
     8  C          0.48561700       0.24453000       0.66693000
     9  C          0.01438300       0.74453000       0.66693000
    10  C          0.98561700       0.25547000       0.16693000
    11  C          0.01438300       0.25547000       0.16693000
    12  C          0.98561700       0.74453000       0.66693000
    13  C          0.64804300       0.24953000       0.43083000
    14  C          0.35195700       0.75047000       0.93083000
    15  C          0.64804300       0.75047000       0.93083000
    16  C          0.35195700       0.24953000       0.43083000
    17  C          0.14804300       0.74953000       0.43083000
    18  C          0.85195700       0.25047000       0.93083000
    19  C          0.14804300       0.25047000       0.93083000
    20  C          0.85195700       0.74953000       0.43083000
    21  C          0.50000000       0.25874000       0.35794000
    22  C          0.50000000       0.74126000       0.85794000
    23  C         -0.00000000       0.75874000       0.35794000
    24  C         -0.00000000       0.24126000       0.85794000
    25  C          0.62950300       0.34393000       0.32013000
    26  C          0.37049700       0.65607000       0.82013000
    27  C          0.62950300       0.65607000       0.82013000
    28  C          0.37049700       0.34393000       0.32013000
    29  C          0.12950300       0.84393000       0.32013000
    30  C          0.87049700       0.15607000       0.82013000
    31  C          0.12950300       0.15607000       0.82013000
    32  C          0.87049700       0.84393000       0.32013000
    33  H          0.63470000       0.40970000       0.20960000
    34  H          0.36530000       0.59030000       0.70960000
    35  H          0.63470000       0.59030000       0.70960000
    36  H          0.36530000       0.40970000       0.20960000
    37  H          0.13470000       0.90970000       0.20960000
    38  H          0.86530000       0.09030000       0.70960000
    39  H          0.13470000       0.09030000       0.70960000
    40  H          0.86530000       0.90970000       0.20960000
    41  C          0.56715300       0.24443000       0.57753000
    42  C          0.43284700       0.75557000       0.07753000
    43  C          0.56715300       0.75557000       0.07753000
    44  C          0.43284700       0.24443000       0.57753000
    45  C          0.06715300       0.74443000       0.57753000
    46  C          0.93284700       0.25557000       0.07753000
    47  C          0.06715300       0.25557000       0.07753000
    48  C          0.93284700       0.74443000       0.57753000
    49  C          0.59507400       0.24633000       0.52923000
    50  C          0.40492600       0.75367000       0.02923000
    51  C          0.59507400       0.75367000       0.02923000
    52  C          0.40492600       0.24633000       0.52923000
    53  C          0.09507400       0.74633000       0.52923000
    54  C          0.90492600       0.25367000       0.02923000
    55  C          0.09507400       0.25367000       0.02923000
    56  C          0.90492600       0.74633000       0.52923000
    57  C          0.52281300       0.25363000       0.48363000
    58  C          0.47718700       0.74637000      -0.01637000
    59  C          0.52281300       0.74637000      -0.01637000
    60  C          0.47718700       0.25363000       0.48363000
    61  C          0.02281300       0.75363000       0.48363000
    62  C          0.97718700       0.24637000      -0.01637000
    63  C          0.02281300       0.24637000      -0.01637000
    64  C          0.97718700       0.75363000       0.48363000
    65  C          0.60370400       0.34273000       0.36963000
    66  C          0.39629600       0.65727000       0.86963000
    67  C          0.60370400       0.65727000       0.86963000
    68  C          0.39629600       0.34273000       0.36963000
    69  C          0.10370400       0.84273000       0.36963000
    70  C          0.89629600       0.15727000       0.86963000
    71  C          0.10370400       0.15727000       0.86963000
    72  C          0.89629600       0.84273000       0.36963000
    73  H          0.59150000       0.40930000       0.29270000
    74  H          0.40850000       0.59070000       0.79270000
    75  H          0.59150000       0.59070000       0.79270000
    76  H          0.40850000       0.40930000       0.29270000
    77  H          0.09150000       0.90930000       0.29270000
    78  H          0.90850000       0.09070000       0.79270000
    79  H          0.09150000       0.09070000       0.79270000
    80  H          0.90850000       0.90930000       0.29270000
    81  C          0.54854400       0.25373000       0.43613000
    82  C          0.45145600       0.74627000       0.93613000
    83  C          0.54854400       0.74627000       0.93613000
    84  C          0.45145600       0.25373000       0.43613000
    85  C          0.04854400       0.75373000       0.43613000
    86  C          0.95145600       0.24627000       0.93613000
    87  C          0.04854400       0.24627000       0.93613000
    88  C          0.95145600       0.75373000       0.43613000
    89  H          0.55360000       0.26000000       0.31020000
    90  H          0.44640000       0.74000000       0.81020000
    91  H          0.55360000       0.74000000       0.81020000
    92  H          0.44640000       0.26000000       0.31020000
    93  H          0.05360000       0.76000000       0.31020000
    94  H          0.94640000       0.24000000       0.81020000
    95  H          0.05360000       0.24000000       0.81020000
    96  H          0.94640000       0.76000000       0.31020000
    97  C          0.55857300       0.23503000       0.76023000
    98  C          0.44142700       0.76497000       0.26023000
    99  C          0.55857300       0.76497000       0.26023000
   100  C          0.44142700       0.23503000       0.76023000
   101  C          0.05857300       0.73503000       0.76023000
   102  C          0.94142700       0.26497000       0.26023000
   103  C          0.05857300       0.26497000       0.26023000
   104  C          0.94142700       0.73503000       0.76023000
   105  H          0.57100000       0.22770000       0.85640000
   106  H          0.42900000       0.77230000       0.35640000
   107  H          0.57100000       0.77230000       0.35640000
   108  H          0.42900000       0.22770000       0.85640000
   109  H          0.07100000       0.72770000       0.85640000
   110  H          0.92900000       0.27230000       0.35640000
   111  H          0.07100000       0.27230000       0.35640000
   112  H          0.92900000       0.72770000       0.85640000
   113  C          0.53241400       0.23583000       0.80723000
   114  C          0.46758600       0.76417000       0.30723000
   115  C          0.53241400       0.76417000       0.30723000
   116  C          0.46758600       0.23583000       0.80723000
   117  C          0.03241400       0.73583000       0.80723000
   118  C          0.96758600       0.26417000       0.30723000
   119  C          0.03241400       0.26417000       0.30723000
   120  C          0.96758600       0.73583000       0.80723000
   121  H          0.52720000       0.23040000       0.93280000
   122  H          0.47280000       0.76960000       0.43280000
   123  H          0.52720000       0.76960000       0.43280000
   124  H          0.47280000       0.23040000       0.93280000
   125  H          0.02720000       0.73040000       0.93280000
   126  H          0.97280000       0.26960000       0.43280000
   127  H          0.02720000       0.26960000       0.43280000
   128  H          0.97280000       0.73040000       0.93280000
   129  C          0.67582400       0.25003000       0.37633000
   130  C          0.32417600       0.74997000       0.87633000
   131  C          0.67582400       0.74997000       0.87633000
   132  C          0.32417600       0.25003000       0.37633000
   133  C          0.17582400       0.75003000       0.37633000
   134  C          0.82417600       0.24997000       0.87633000
   135  C          0.17582400       0.24997000       0.87633000
   136  C          0.82417600       0.75003000       0.37633000
   137  C          0.61364400       0.15253000       0.64033000
   138  C          0.38635600       0.84747000       0.14033000
   139  C          0.61364400       0.84747000       0.14033000
   140  C          0.38635600       0.15253000       0.64033000
   141  C          0.11364400       0.65253000       0.64033000
   142  C          0.88635600       0.34747000       0.14033000
   143  C          0.11364400       0.34747000       0.14033000
   144  C          0.88635600       0.65253000       0.64033000
   145  H          0.60850000       0.08690000       0.75090000
   146  H          0.39150000       0.91310000       0.25090000
   147  H          0.60850000       0.91310000       0.25090000
   148  H          0.39150000       0.08690000       0.75090000
   149  H          0.10850000       0.58690000       0.75090000
   150  H          0.89150000       0.41310000       0.25090000
   151  H          0.10850000       0.41310000       0.25090000
   152  H          0.89150000       0.58690000       0.75090000
   153  C          0.63950400       0.15413000       0.59083000
   154  C          0.36049600       0.84587000       0.09083000
   155  C          0.63950400       0.84587000       0.09083000
   156  C          0.36049600       0.15413000       0.59083000
   157  C          0.13950400       0.65413000       0.59083000
   158  C          0.86049600       0.34587000       0.09083000
   159  C          0.13950400       0.34587000       0.09083000
   160  C          0.86049600       0.65413000       0.59083000
   161  H          0.65170000       0.08840000       0.66810000
   162  H          0.34830000       0.91160000       0.16810000
   163  H          0.65170000       0.91160000       0.16810000
   164  H          0.34830000       0.08840000       0.66810000
   165  H          0.15170000       0.58840000       0.66810000
   166  H          0.84830000       0.41160000       0.16810000
   167  H          0.15170000       0.41160000       0.16810000
   168  H          0.84830000       0.58840000       0.66810000
   169  C          0.69273400       0.10023000       0.43743000
   170  C          0.30726600       0.89977000       0.93743000
   171  C          0.69273400       0.89977000       0.93743000
   172  C          0.30726600       0.10023000       0.43743000
   173  C          0.19273400       0.60023000       0.43743000
   174  C          0.80726600       0.39977000       0.93743000
   175  C          0.19273400       0.39977000       0.93743000
   176  C          0.80726600       0.60023000       0.43743000
   177  H          0.68650000      -0.00440000       0.51510000
   178  H          0.31350000       0.00440000       0.01510000
   179  H          0.68650000       0.00440000       0.01510000
   180  H          0.31350000      -0.00440000       0.51510000
   181  H          0.18650000       0.49560000       0.51510000
   182  H          0.81350000       0.50440000       0.01510000
   183  H          0.18650000       0.50440000       0.01510000
   184  H          0.81350000       0.49560000       0.51510000
   185  C          0.71857400       0.10203000       0.38613000
   186  C          0.28142600       0.89797000       0.88613000
   187  C          0.71857400       0.89797000       0.88613000
   188  C          0.28142600       0.10203000       0.38613000
   189  C          0.21857400       0.60203000       0.38613000
   190  C          0.78142600       0.39797000       0.88613000
   191  C          0.21857400       0.39797000       0.88613000
   192  C          0.78142600       0.60203000       0.38613000
   193  H          0.72990000       0.00120000       0.43180000
   194  H          0.27010000      -0.00120000       0.93180000
   195  H          0.72990000      -0.00120000       0.93180000
   196  H          0.27010000       0.00120000       0.43180000
   197  H          0.22990000       0.50120000       0.43180000
   198  H          0.77010000       0.49880000       0.93180000
   199  H          0.22990000       0.49880000       0.93180000
   200  H          0.77010000       0.50120000       0.43180000
   201  C          0.72782400       0.25003000       0.26853000
   202  C          0.27217600       0.74997000       0.76853000
   203  C          0.72782400       0.74997000       0.76853000
   204  C          0.27217600       0.25003000       0.26853000
   205  C          0.22782400       0.75003000       0.26853000
   206  C          0.77217600       0.24997000       0.76853000
   207  C          0.22782400       0.24997000       0.76853000
   208  C          0.77217600       0.75003000       0.26853000
   209  H          0.74530000       0.24880000       0.23030000
   210  H          0.25470000       0.75120000       0.73030000
   211  H          0.74530000       0.75120000       0.73030000
   212  H          0.25470000       0.24880000       0.23030000
   213  H          0.24530000       0.74880000       0.23030000
   214  H          0.75470000       0.25120000       0.73030000
   215  H          0.24530000       0.25120000       0.73030000
   216  H          0.75470000       0.74880000       0.23030000
   217  C          0.68564400       0.39983000       0.26183000
   218  C          0.31435600       0.60017000       0.76183000
   219  C          0.68564400       0.60017000       0.76183000
   220  C          0.31435600       0.39983000       0.26183000
   221  C          0.18564400       0.89983000       0.26183000
   222  C          0.81435600       0.10017000       0.76183000
   223  C          0.18564400       0.10017000       0.76183000
   224  C          0.81435600       0.89983000       0.26183000
   225  H          0.67460000       0.50440000       0.22000000
   226  H          0.32540000       0.49560000       0.72000000
   227  H          0.67460000       0.49560000       0.72000000
   228  H          0.32540000       0.50440000       0.22000000
   229  H          0.17460000       0.00440000       0.22000000
   230  H          0.82540000      -0.00440000       0.72000000
   231  H          0.17460000      -0.00440000       0.72000000
   232  H          0.82540000       0.00440000       0.22000000
   233  C          0.71135400       0.39974000       0.20733000
   234  C          0.28864600       0.60026000       0.70733000
   235  C          0.71135400       0.60026000       0.70733000
   236  C          0.28864600       0.39974000       0.20733000
   237  C          0.21135400       0.89974000       0.20733000
   238  C          0.78864600       0.10026000       0.70733000
   239  C          0.21135400       0.10026000       0.70733000
   240  C          0.78864600       0.89974000       0.20733000
   241  H          0.71760000       0.50270000       0.12790000
   242  H          0.28240000       0.49730000       0.62790000
   243  H          0.71760000       0.49730000       0.62790000
   244  H          0.28240000       0.50270000       0.12790000
   245  H          0.21760000       0.00270000       0.12790000
   246  H          0.78240000      -0.00270000       0.62790000
   247  H          0.21760000      -0.00270000       0.62790000
   248  H          0.78240000       0.00270000       0.12790000
