data_KAMDUA01
_symmetry_space_group_name_H-M    'P1'
_symmetry_Int_Tables_number       1
loop_
_symmetry_equiv_pos_site_id
_symmetry_equiv_pos_as_xyz
1 x,y,z
_cell_length_a                   6.85526
_cell_length_b                   51.7775
_cell_length_c                   6.95576
_cell_angle_alpha                90.0
_cell_angle_beta                 90.0
_cell_angle_gamma                90.0
loop_
_atom_site_label
_atom_site_type_symbol
_atom_site_fract_x
_atom_site_fract_y
_atom_site_fract_z
     1  O          0.16172170       0.25000000       0.40658180
     2  O          0.33827830       0.75000000       0.90658180
     3  O          0.83827830       0.75000000       0.59341820
     4  O          0.66172170       0.25000000       0.09341820
     5  C          0.50875160       0.15494200       0.50373160
     6  C         -0.00875160       0.84505800       0.00373160
     7  C          0.49124840       0.65494200       0.49626840
     8  C          0.00875160       0.34505800      -0.00373160
     9  C          0.49124840       0.84505800       0.49626840
    10  C          0.00875160       0.15494200      -0.00373160
    11  C          0.50875160       0.34505800       0.50373160
    12  C         -0.00875160       0.65494200       0.00373160
    13  C          0.41614160       0.20131200       0.46042160
    14  C          0.08385840       0.79868800       0.96042160
    15  C          0.58385840       0.70131200       0.53957840
    16  C          0.91614160       0.29868800       0.03957840
    17  C          0.58385840       0.79868800       0.53957840
    18  C          0.91614160       0.20131200       0.03957840
    19  C          0.41614160       0.29868800       0.46042160
    20  C          0.08385840       0.70131200       0.96042160
    21  H          0.28921300       0.19610000       0.42167400
    22  H          0.21078700       0.80390000       0.92167400
    23  H          0.71078700       0.69610000       0.57832600
    24  H          0.78921300       0.30390000       0.07832600
    25  H          0.71078700       0.80390000       0.57832600
    26  H          0.78921300       0.19610000       0.07832600
    27  H          0.28921300       0.30390000       0.42167400
    28  H          0.21078700       0.69610000       0.92167400
    29  C          0.55865160       0.18282200       0.50772150
    30  C          0.94134840       0.81717800       0.00772150
    31  C          0.44134840       0.68282200       0.49227850
    32  C          0.05865160       0.31717800      -0.00772150
    33  C          0.44134840       0.81717800       0.49227850
    34  C          0.05865160       0.18282200      -0.00772150
    35  C          0.55865160       0.31717800       0.50772150
    36  C          0.94134840       0.68282200       0.00772150
    37  C          0.34110160       0.07442200       0.49882150
    38  C          0.15889840       0.92557800      -0.00117850
    39  C          0.65889840       0.57442200       0.50117850
    40  C          0.84110160       0.42557800       0.00117850
    41  C          0.65889840       0.92557800       0.50117850
    42  C          0.84110160       0.07442200       0.00117850
    43  C          0.34110160       0.42557800       0.49882150
    44  C          0.15889840       0.57442200      -0.00117850
    45  C          0.46399150       0.22710200       0.47131150
    46  C          0.03600850       0.77289800       0.97131150
    47  C          0.53600850       0.72710200       0.52868850
    48  C          0.96399150       0.27289800       0.02868850
    49  C          0.53600850       0.77289800       0.52868850
    50  C          0.96399150       0.22710200       0.02868850
    51  C          0.46399150       0.27289800       0.47131150
    52  C          0.03600850       0.72710200       0.97131150
    53  C          0.33572000       0.25000000       0.44092000
    54  C          0.16428000       0.75000000       0.94092000
    55  C          0.66428000       0.75000000       0.55908000
    56  C          0.83572000       0.25000000       0.05908000
    57  C          0.40119150       0.10201200       0.49901150
    58  C          0.09880850       0.89798800      -0.00098850
    59  C          0.59880850       0.60201200       0.50098850
    60  C          0.90119150       0.39798800       0.00098850
    61  C          0.59880850       0.89798800       0.50098850
    62  C          0.90119150       0.10201200       0.00098850
    63  C          0.40119150       0.39798800       0.49901150
    64  C          0.09880850       0.60201200      -0.00098850
    65  C          0.79384160       0.21760200       0.56903160
    66  C          0.70615840       0.78239800       0.06903160
    67  C          0.20615840       0.71760200       0.43096840
    68  C          0.29384160       0.28239800       0.93096840
    69  C          0.20615840       0.78239800       0.43096840
    70  C          0.29384160       0.21760200       0.93096840
    71  C          0.79384160       0.28239800       0.56903160
    72  C          0.70615840       0.71760200       0.06903160
    73  H          0.92168600       0.22293100       0.60376200
    74  H          0.57831400       0.77706900       0.10376200
    75  H          0.07831400       0.72293100       0.39623800
    76  H          0.42168600       0.27706900       0.89623800
    77  H          0.07831400       0.77706900       0.39623800
    78  H          0.42168600       0.22293100       0.89623800
    79  H          0.92168600       0.27706900       0.60376200
    80  H          0.57831400       0.72293100       0.10376200
    81  C          0.38513160       0.14510200       0.36168160
    82  C          0.11486840       0.85489800       0.86168160
    83  C          0.61486840       0.64510200       0.63831840
    84  C          0.88513160       0.35489800       0.13831840
    85  C          0.61486840       0.85489800       0.63831840
    86  C          0.88513160       0.14510200       0.13831840
    87  C          0.38513160       0.35489800       0.36168160
    88  C          0.11486840       0.64510200       0.86168160
    89  H          0.33568400       0.15637800       0.26558400
    90  H          0.16431600       0.84362200       0.76558400
    91  H          0.66431600       0.65637800       0.73441600
    92  H          0.83568400       0.34362200       0.23441600
    93  H          0.66431600       0.84362200       0.73441600
    94  H          0.83568400       0.15637800       0.23441600
    95  H          0.33568400       0.34362200       0.26558400
    96  H          0.16431600       0.65637800       0.76558400
    97  C          0.33301160       0.11914200       0.35815160
    98  C          0.16698840       0.88085800       0.85815160
    99  C          0.66698840       0.61914200       0.64184840
   100  C          0.83301160       0.38085800       0.14184840
   101  C          0.66698840       0.88085800       0.64184840
   102  C          0.83301160       0.11914200       0.14184840
   103  C          0.33301160       0.38085800       0.35815160
   104  C          0.16698840       0.61914200       0.85815160
   105  H          0.25008900       0.11294100       0.25894400
   106  H          0.24991100       0.88705900       0.75894400
   107  H          0.74991100       0.61294100       0.74105600
   108  H          0.75008900       0.38705900       0.24105600
   109  H          0.74991100       0.88705900       0.74105600
   110  H          0.75008900       0.11294100       0.24105600
   111  H          0.25008900       0.38705900       0.25894400
   112  H          0.24991100       0.61294100       0.75894400
   113  C          0.65099160       0.23566200       0.52452150
   114  C          0.84900840       0.76433800       0.02452150
   115  C          0.34900840       0.73566200       0.47547850
   116  C          0.15099160       0.26433800       0.97547850
   117  C          0.34900840       0.76433800       0.47547850
   118  C          0.15099160       0.23566200       0.97547850
   119  C          0.65099160       0.26433800       0.52452150
   120  C          0.84900840       0.73566200       0.02452150
   121  C          0.74498160       0.19133200       0.56150160
   122  C          0.75501840       0.80866800       0.06150160
   123  C          0.25501840       0.69133200       0.43849840
   124  C          0.24498160       0.30866800       0.93849840
   125  C          0.25501840       0.80866800       0.43849840
   126  C          0.24498160       0.19133200       0.93849840
   127  C          0.74498160       0.30866800       0.56150160
   128  C          0.75501840       0.69133200       0.06150160
   129  H          0.84133200       0.17888500       0.59391700
   130  H          0.65866800       0.82111500       0.09391700
   131  H          0.15866800       0.67888500       0.40608300
   132  H          0.34133200       0.32111500       0.90608300
   133  H          0.15866800       0.82111500       0.40608300
   134  H          0.34133200       0.17888500       0.90608300
   135  H          0.84133200       0.32111500       0.59391700
   136  H          0.65866800       0.67888500       0.09391700
   137  C          0.58039160       0.13774200       0.64191160
   138  C          0.91960840       0.86225800       0.14191160
   139  C          0.41960840       0.63774200       0.35808840
   140  C          0.08039160       0.36225800       0.85808840
   141  C          0.41960840       0.86225800       0.35808840
   142  C          0.08039160       0.13774200       0.85808840
   143  C          0.58039160       0.36225800       0.64191160
   144  C          0.91960840       0.63774200       0.14191160
   145  H          0.66717700       0.14382400       0.73827300
   146  H          0.83282300       0.85617600       0.23827300
   147  H          0.33282300       0.64382400       0.26172700
   148  H          0.16717700       0.35617600       0.76172700
   149  H          0.33282300       0.85617600       0.26172700
   150  H          0.16717700       0.14382400       0.76172700
   151  H          0.66717700       0.35617600       0.73827300
   152  H          0.83282300       0.64382400       0.23827300
   153  C          0.45549180       0.05540200       0.58714170
   154  C          0.04450820       0.94459800       0.08714170
   155  C          0.54450820       0.55540200       0.41285830
   156  C          0.95549180       0.44459800       0.91285830
   157  C          0.54450820       0.94459800       0.41285830
   158  C          0.95549180       0.05540200       0.91285830
   159  C          0.45549180       0.44459800       0.58714170
   160  C          0.04450820       0.55540200       0.08714170
   161  H          0.57437400       0.06014100       0.64780500
   162  H          0.92562600       0.93985900       0.14780500
   163  H          0.42562600       0.56014100       0.35219500
   164  H          0.07437400       0.43985900       0.85219500
   165  H          0.42562600       0.93985900       0.35219500
   166  H          0.07437400       0.06014100       0.85219500
   167  H          0.57437400       0.43985900       0.64780500
   168  H          0.92562600       0.56014100       0.14780500
   169  C          0.16670180       0.06666200       0.41163170
   170  C          0.33329820       0.93333800       0.91163170
   171  C          0.83329820       0.56666200       0.58836830
   172  C          0.66670180       0.43333800       0.08836830
   173  C          0.83329820       0.93333800       0.58836830
   174  C          0.66670180       0.06666200       0.08836830
   175  C          0.16670180       0.43333800       0.41163170
   176  C          0.33329820       0.56666200       0.91163170
   177  H          0.08548300       0.07924100       0.35269400
   178  H          0.41451700       0.92075900       0.85269400
   179  H          0.91451700       0.57924100       0.64730600
   180  H          0.58548300       0.42075900       0.14730600
   181  H          0.91451700       0.92075900       0.64730600
   182  H          0.58548300       0.07924100       0.14730600
   183  H          0.08548300       0.42075900       0.35269400
   184  H          0.41451700       0.57924100       0.85269400
   185  C          0.52621170       0.11185200       0.64006170
   186  C          0.97378830       0.88814800       0.14006170
   187  C          0.47378830       0.61185200       0.35993830
   188  C          0.02621170       0.38814800       0.85993830
   189  C          0.47378830       0.88814800       0.35993830
   190  C          0.02621170       0.11185200       0.85993830
   191  C          0.52621170       0.38814800       0.64006170
   192  C          0.97378830       0.61185200       0.14006170
   193  H          0.57516500       0.10061500       0.73665500
   194  H          0.92483500       0.89938500       0.23665500
   195  H          0.42483500       0.60061500       0.26334500
   196  H          0.07516500       0.39938500       0.76334500
   197  H          0.42483500       0.89938500       0.26334500
   198  H          0.07516500       0.10061500       0.76334500
   199  H          0.57516500       0.39938500       0.73665500
   200  H          0.92483500       0.60061500       0.23665500
   201  C          0.39732000       0.02965200       0.58719180
   202  C          0.10268000       0.97034800       0.08719180
   203  C          0.60268000       0.52965200       0.41280820
   204  C          0.89732000       0.47034800       0.91280820
   205  C          0.60268000       0.97034800       0.41280820
   206  C          0.89732000       0.02965200       0.91280820
   207  C          0.39732000       0.47034800       0.58719180
   208  C          0.10268000       0.52965200       0.08719180
   209  H          0.47585500       0.01703000       0.64910400
   210  H          0.02414500       0.98297000       0.14910400
   211  H          0.52414500       0.51703000       0.35089600
   212  H          0.97585500       0.48297000       0.85089600
   213  H          0.52414500       0.98297000       0.35089600
   214  H          0.97585500       0.01703000       0.85089600
   215  H          0.47585500       0.48297000       0.64910400
   216  H          0.02414500       0.51703000       0.14910400
   217  C          0.11002000       0.04082200       0.40964190
   218  C          0.38998000       0.95917800       0.90964190
   219  C          0.88998000       0.54082200       0.59035810
   220  C          0.61002000       0.45917800       0.09035810
   221  C          0.88998000       0.95917800       0.59035810
   222  C          0.61002000       0.04082200       0.09035810
   223  C          0.11002000       0.45917800       0.40964190
   224  C          0.38998000       0.54082200       0.90964190
   225  H         -0.00798300       0.03590200       0.34798400
   226  H          0.50798300       0.96409800       0.84798400
   227  H          0.00798300       0.53590200       0.65201600
   228  H          0.49201700       0.46409800       0.15201600
   229  H          0.00798300       0.96409800       0.65201600
   230  H          0.49201700       0.03590200       0.15201600
   231  H         -0.00798300       0.46409800       0.34798400
   232  H          0.50798300       0.53590200       0.84798400
   233  C          0.22532000       0.02229200       0.49742180
   234  C          0.27468000       0.97770800      -0.00257820
   235  C          0.77468000       0.52229200       0.50257820
   236  C          0.72532000       0.47770800       0.00257820
   237  C          0.77468000       0.97770800       0.50257820
   238  C          0.72532000       0.02229200       0.00257820
   239  C          0.22532000       0.47770800       0.49742180
   240  C          0.27468000       0.52229200      -0.00257820
   241  H          0.18691700       0.00465700       0.49618200
   242  H          0.31308300       0.99534300      -0.00381800
   243  H          0.81308300       0.50465700       0.50381800
   244  H          0.68691700       0.49534300       0.00381800
   245  H          0.81308300       0.99534300       0.50381800
   246  H          0.68691700       0.00465700       0.00381800
   247  H          0.18691700       0.49534300       0.49618200
   248  H          0.31308300       0.50465700      -0.00381800
