data_KAXXAI08
_symmetry_space_group_name_H-M    'P1'
_symmetry_Int_Tables_number       1
loop_
_symmetry_equiv_pos_site_id
_symmetry_equiv_pos_as_xyz
1 x,y,z
_cell_length_a                   6.70493
_cell_length_b                   7.27783
_cell_length_c                   14.16306
_cell_angle_alpha                77.1674
_cell_angle_beta                 79.9083
_cell_angle_gamma                65.4874
loop_
_atom_site_label
_atom_site_type_symbol
_atom_site_fract_x
_atom_site_fract_y
_atom_site_fract_z
     1  Cl         0.18973000       0.26523000       0.48462100
     2  Cl         0.81027000       0.73477000       0.51537900
     3  O          0.27533000       0.29123000       0.00433160
     4  O          0.72467000       0.70877000      -0.00433160
     5  H          0.14628700       0.32386600       0.02678400
     6  H          0.85371300       0.67613400       0.97321600
     7  O          0.13453000       0.60173000       0.91569160
     8  O          0.86547000       0.39827000       0.08430840
     9  N          0.40294000       0.74444000       0.79462000
    10  N          0.59706000       0.25556000       0.20538000
    11  H          0.27340000       0.75060000       0.81730000
    12  H          0.72660000       0.24940000       0.18270000
    13  C          0.29615000       0.44264000       0.93832000
    14  C          0.70385000       0.55736000       0.06168000
    15  C          0.52085000       0.40834000       0.89402000
    16  C          0.47915000       0.59166000       0.10598000
    17  C          0.69315000       0.21945000       0.92202000
    18  C          0.30685000       0.78055000       0.07798000
    19  H          0.66232000       0.11983900       0.96838800
    20  H          0.33768000       0.88016100       0.03161200
    21  C          0.90645000       0.17955000       0.88192000
    22  C          0.09355000       0.82045000       0.11808000
    23  H          0.01889100       0.05413400       0.90090700
    24  H          0.98110900       0.94586600       0.09909300
    25  C          0.95125000       0.32875000       0.81272000
    26  C          0.04875000       0.67125000       0.18728000
    27  H          0.09515400       0.30201500       0.78548300
    28  H          0.90484600       0.69798500       0.21451700
    29  C          0.78745000       0.51545000       0.78352000
    30  C          0.21255000       0.48455000       0.21648000
    31  H          0.82179300       0.61252000       0.73679700
    32  H          0.17820700       0.38748000       0.26320300
    33  C          0.56745000       0.56075000       0.82392000
    34  C          0.43255000       0.43925000       0.17608000
    35  C          0.42565000       0.91285000       0.72882000
    36  C          0.57435000       0.08715000       0.27118000
    37  C          0.30885000      -0.01315000       0.64642000
    38  C          0.69115000       0.01315000       0.35358000
    39  C          0.32217000       0.16115000       0.58623000
    40  C          0.67783000       0.83885000       0.41377000
    41  C          0.44587000       0.25535000       0.60603000
    42  C          0.55413000       0.74465000       0.39397000
    43  H          0.45133400       0.37188000       0.56441100
    44  H          0.54866600       0.62812000       0.43558900
    45  C          0.56277000       0.17895000       0.68733000
    46  C          0.43723000       0.82105000       0.31267000
    47  H          0.64762300       0.24286300       0.69980900
    48  H          0.35237700       0.75713700       0.30019100
    49  C          0.55225000       0.00675000       0.74972000
    50  C          0.44775000      -0.00675000       0.25028000
    51  H          0.62865400       0.95461800       0.80491900
    52  H          0.37134600       0.04538200       0.19508100
    53  C          0.17956000       0.87926000       0.62363000
    54  C          0.82044000       0.12074000       0.37637000
    55  H          0.23377400       0.73961700       0.65629600
    56  H          0.76622600       0.26038300       0.34370400
    57  H          0.19490300       0.88195600       0.55467600
    58  H          0.80509700       0.11804400       0.44532400
    59  H          0.02701500       0.94687900       0.64524300
    60  H          0.97298500       0.05312100       0.35475700
