data_KAXXAI11
_symmetry_space_group_name_H-M    'P1'
_symmetry_Int_Tables_number       1
loop_
_symmetry_equiv_pos_site_id
_symmetry_equiv_pos_as_xyz
1 x,y,z
_cell_length_a                   10.584111
_cell_length_b                   7.85036
_cell_length_c                   14.971813
_cell_angle_alpha                90.0
_cell_angle_beta                 101.3999
_cell_angle_gamma                90.0
loop_
_atom_site_label
_atom_site_type_symbol
_atom_site_fract_x
_atom_site_fract_y
_atom_site_fract_z
     1  Cl         0.90732300       0.64647200       0.07016400
     2  Cl         0.09267700       0.14647200       0.42983600
     3  Cl         0.09267700       0.35352800       0.92983600
     4  Cl         0.90732300       0.85352800       0.57016400
     5  O          0.49299190       0.22652000       0.47456130
     6  O          0.50700810       0.72652000       0.02543870
     7  O          0.50700810       0.77348000       0.52543870
     8  O          0.49299190       0.27348000       0.97456130
     9  N          0.26732000       0.04413000       0.23009140
    10  N          0.73268000       0.54413000       0.26990860
    11  N          0.73268000       0.95587000       0.76990860
    12  N          0.26732000       0.45587000       0.73009140
    13  H          0.28720000      -0.01530000       0.27781300
    14  H          0.71280000       0.48470000       0.22218700
    15  H          0.71280000       0.01530000       0.72218700
    16  H          0.28720000       0.51530000       0.77781300
    17  C          0.42222000       0.15463000       0.40246160
    18  C          0.57778000       0.65463000       0.09753840
    19  C          0.57778000       0.84537000       0.59753840
    20  C          0.42222000       0.34537000       0.90246160
    21  O          0.39827170       0.00042000       0.40131110
    22  O          0.60172830       0.50042000       0.09868890
    23  O          0.60172830      -0.00042000       0.59868890
    24  O          0.39827170       0.49958000       0.90131110
    25  C          0.37702000       0.26993000       0.32654150
    26  C          0.62298000       0.76993000       0.17345850
    27  C          0.62298000       0.73007000       0.67345850
    28  C          0.37702000       0.23007000       0.82654150
    29  C          0.40812000       0.44383000       0.33651180
    30  C          0.59188000       0.94383000       0.16348820
    31  C          0.59188000       0.55617000       0.66348820
    32  C          0.40812000       0.05617000       0.83651180
    33  H          0.45404000       0.48267400       0.39221300
    34  H          0.54596000      -0.01732600       0.10778700
    35  H          0.54596000       0.51732600       0.60778700
    36  H          0.45404000       0.01732600       0.89221300
    37  C          0.37283000       0.55803000       0.26676190
    38  C          0.62717000       0.05803000       0.23323810
    39  C          0.62717000       0.44197000       0.73323810
    40  C          0.37283000       0.94197000       0.76676190
    41  H          0.39575900       0.67214500       0.27458500
    42  H          0.60424100       0.17214500       0.22541500
    43  H          0.60424100       0.32785500       0.72541500
    44  H          0.39575900       0.82785500       0.77458500
    45  C          0.30263000       0.50023000       0.18458190
    46  C          0.69737000       0.00023000       0.31541810
    47  C          0.69737000       0.49977000       0.81541810
    48  C          0.30263000      -0.00023000       0.68458190
    49  H          0.27840100       0.57662500       0.13681800
    50  H          0.72159900       0.07662500       0.36318200
    51  H          0.72159900       0.42337500       0.86318200
    52  H          0.27840100       0.92337500       0.63681800
    53  C          0.26802000       0.33233000       0.17217170
    54  C          0.73198000       0.83233000       0.32782830
    55  C          0.73198000       0.66767000       0.82782830
    56  C          0.26802000       0.16767000       0.67217170
    57  H          0.21974800       0.29753400       0.11634400
    58  H          0.78025200       0.79753400       0.38365600
    59  H          0.78025200       0.70246600       0.88365600
    60  H          0.21974800       0.20246600       0.61634400
    61  C          0.30362000       0.21193000       0.24177150
    62  C          0.69638000       0.71193000       0.25822850
    63  C          0.69638000       0.78807000       0.75822850
    64  C          0.30362000       0.28807000       0.74177150
    65  C          0.20292000       0.96517000       0.14839150
    66  C          0.79708000       0.46517000       0.35160850
    67  C          0.79708000       0.03483000       0.85160850
    68  C          0.20292000       0.53483000       0.64839150
    69  C          0.24642000      -0.01453000       0.06774170
    70  C          0.75358000       0.48547000       0.43225830
    71  C          0.75358000       0.01453000       0.93225830
    72  C          0.24642000       0.51453000       0.56774170
    73  H          0.31750100       0.05446000       0.06642000
    74  H          0.68249900       0.55446000       0.43358000
    75  H          0.68249900       0.94554000       0.93358000
    76  H          0.31750100       0.44554000       0.56642000
    77  C          0.18523000       0.90437000       0.98926830
    78  C          0.81477000       0.40437000       0.51073170
    79  C          0.81477000       0.09563000       0.01073170
    80  C          0.18523000       0.59563000       0.48926830
    81  H          0.21445400       0.92020600       0.93521800
    82  H          0.78554600       0.42020600       0.56478200
    83  H          0.78554600       0.07979400       0.06478200
    84  H          0.21445400       0.57979400       0.43521800
    85  C          0.08162000       0.80067000      -0.00923150
    86  C          0.91838000       0.30067000       0.50923150
    87  C          0.91838000       0.19933000       0.00923150
    88  C          0.08162000       0.69933000       0.49076850
    89  H          0.03996400       0.74603200       0.93799800
    90  H          0.96003600       0.24603200       0.56200200
    91  H          0.96003600       0.25396800       0.06200200
    92  H          0.03996400       0.75396800       0.43799800
    93  C          0.04002000       0.77847000       0.07133150
    94  C          0.95998000       0.27847000       0.42866850
    95  C          0.95998000       0.22153000       0.92866850
    96  C          0.04002000       0.72153000       0.57133150
    97  C          0.09792000       0.85887000       0.15233150
    98  C          0.90208000       0.35887000       0.34766850
    99  C          0.90208000       0.14113000       0.84766850
   100  C          0.09792000       0.64113000       0.65233150
   101  C          0.05053000       0.83107000       0.23941160
   102  C          0.94947000       0.33107000       0.26058840
   103  C          0.94947000       0.16893000       0.76058840
   104  C          0.05053000       0.66893000       0.73941160
   105  H          0.08153300       0.72356700       0.26539700
   106  H          0.91846700       0.22356700       0.23460300
   107  H          0.91846700       0.27643300       0.73460300
   108  H          0.08153300       0.77643300       0.76539700
   109  H          0.95802500       0.83124000       0.22691000
   110  H          0.04197500       0.33124000       0.27309000
   111  H          0.04197500       0.16876000       0.77309000
   112  H          0.95802500       0.66876000       0.72691000
   113  H          0.08181100       0.92087800       0.28157000
   114  H          0.91818900       0.42087800       0.21843000
   115  H          0.91818900       0.07912200       0.71843000
   116  H          0.08181100       0.57912200       0.78157000
   117  H          0.52630000       0.15130000       0.51191800
   118  H          0.47370000       0.65130000       0.98808200
   119  H          0.47370000       0.84870000       0.48808200
   120  H          0.52630000       0.34870000       0.01191800
