data_KAXXAI01
_symmetry_space_group_name_H-M    'P1'
_symmetry_Int_Tables_number       1
loop_
_symmetry_equiv_pos_site_id
_symmetry_equiv_pos_as_xyz
1 x,y,z
_cell_length_a                   4.8262
_cell_length_b                   32.12811
_cell_length_c                   8.0414
_cell_angle_alpha                90.0
_cell_angle_beta                 104.883
_cell_angle_gamma                90.0
loop_
_atom_site_label
_atom_site_type_symbol
_atom_site_fract_x
_atom_site_fract_y
_atom_site_fract_z
     1  Cl         0.24301000       0.24017200       0.41399800
     2  Cl         0.75699000       0.74017200       0.08600200
     3  Cl         0.75699000       0.75982800       0.58600200
     4  Cl         0.24301000       0.25982800       0.91399800
     5  O          0.93033000       0.50020500       0.71362000
     6  O          0.06967000       0.00020500       0.78638000
     7  O          0.06967000       0.49979500       0.28638000
     8  O          0.93033000      -0.00020500       0.21362000
     9  O          0.76683000       0.46251500       0.47512000
    10  O          0.23317000       0.96251500       0.02488000
    11  O          0.23317000       0.53748500       0.52488000
    12  O          0.76683000       0.03748500       0.97512000
    13  N          0.41574000       0.39860600       0.48482000
    14  N          0.58426000       0.89860600       0.01518000
    15  N          0.58426000       0.60139400       0.51518000
    16  N          0.41574000       0.10139400      -0.01518000
    17  C          0.76985000       0.46960700       0.62643000
    18  C          0.23015000       0.96960700       0.87357000
    19  C          0.23015000       0.53039300       0.37357000
    20  C          0.76985000       0.03039300       0.12643000
    21  C          0.60595000       0.44609700       0.72373000
    22  C          0.39405000       0.94609700       0.77627000
    23  C          0.39405000       0.55390300       0.27627000
    24  C          0.60595000       0.05390300       0.22373000
    25  C          0.61735000       0.45752700       0.89413000
    26  C          0.38265000       0.95752700       0.60587000
    27  C          0.38265000       0.54247300       0.10587000
    28  C          0.61735000       0.04247300       0.39413000
    29  C          0.45805000       0.43719700      -0.01137000
    30  C          0.54195000       0.93719700       0.51137000
    31  C          0.54195000       0.56280300       0.01137000
    32  C          0.45805000       0.06280300       0.48863000
    33  C          0.28395000       0.40412800       0.91353000
    34  C          0.71605000       0.90412800       0.58647000
    35  C          0.71605000       0.59587200       0.08647000
    36  C          0.28395000       0.09587200       0.41353000
    37  C          0.27155000       0.39170700       0.74833000
    38  C          0.72845000       0.89170700       0.75167000
    39  C          0.72845000       0.60829300       0.25167000
    40  C          0.27155000       0.10829300       0.24833000
    41  C          0.43035000       0.41195700       0.64893000
    42  C          0.56965000       0.91195700       0.85107000
    43  C          0.56965000       0.58804300       0.35107000
    44  C          0.43035000       0.08804300       0.14893000
    45  C          0.24445000       0.36469700       0.40313000
    46  C          0.75555000       0.86469700       0.09687000
    47  C          0.75555000       0.63530300       0.59687000
    48  C          0.24445000       0.13530300       0.90313000
    49  C          0.00205000       0.37271700       0.27333000
    50  C         -0.00205000       0.87271700       0.22667000
    51  C         -0.00205000       0.62728300       0.72667000
    52  C          0.00205000       0.12728300       0.77333000
    53  C          0.83464000       0.34067800       0.18653000
    54  C          0.16536000       0.84067800       0.31347000
    55  C          0.16536000       0.65932200       0.81347000
    56  C          0.83464000       0.15932200       0.68653000
    57  C          0.91234000       0.29975800       0.23073000
    58  C          0.08766000       0.79975800       0.26927000
    59  C          0.08766000       0.70024200       0.76927000
    60  C          0.91234000       0.20024200       0.73073000
    61  C          0.15385000       0.29222700       0.36113000
    62  C          0.84615000       0.79222700       0.13887000
    63  C          0.84615000       0.70777300       0.63887000
    64  C          0.15385000       0.20777300       0.86113000
    65  C          0.33255000       0.32361700       0.45143000
    66  C          0.66745000       0.82361700       0.04857000
    67  C          0.66745000       0.67638300       0.54857000
    68  C          0.33255000       0.17638300       0.95143000
    69  C          0.59365000       0.31394800       0.58913000
    70  C          0.40635000       0.81394800       0.91087000
    71  C          0.40635000       0.68605200       0.41087000
    72  C          0.59365000       0.18605200       0.08913000
    73  H          0.05690000       0.51471200       0.65660000
    74  H          0.94310000       0.01471200       0.84340000
    75  H          0.94310000       0.48528800       0.34340000
    76  H          0.05690000       0.98528800       0.15660000
    77  H          0.73140000       0.48007000       0.94030000
    78  H          0.26860000       0.98007000       0.55970000
    79  H          0.26860000       0.51993000       0.05970000
    80  H          0.73140000       0.01993000       0.44030000
    81  H          0.45250000       0.44748000       0.09830000
    82  H          0.54750000       0.94748000       0.40170000
    83  H          0.54750000       0.55252000       0.90170000
    84  H          0.45250000       0.05252000       0.59830000
    85  H          0.17850000       0.38897000       0.97430000
    86  H          0.82150000       0.88897000       0.52570000
    87  H          0.82150000       0.61103000       0.02570000
    88  H          0.17850000       0.11103000       0.47430000
    89  H          0.14250000       0.37018000       0.70330000
    90  H          0.85750000       0.87018000       0.79670000
    91  H          0.85750000       0.62982000       0.29670000
    92  H          0.14250000       0.12982000       0.20330000
    93  H          0.48760000       0.41468000       0.43430000
    94  H          0.51240000       0.91468000       0.06570000
    95  H          0.51240000       0.58532000       0.56570000
    96  H          0.48760000       0.08532000       0.93430000
    97  H          0.96150000       0.39978000       0.24630000
    98  H          0.03850000       0.89978000       0.25370000
    99  H          0.03850000       0.60022000       0.75370000
   100  H          0.96150000       0.10022000       0.74630000
   101  H          0.68250000       0.34747000       0.09830000
   102  H          0.31750000       0.84747000       0.40170000
   103  H          0.31750000       0.65253000       0.90170000
   104  H          0.68250000       0.15253000       0.59830000
   105  H          0.78140000       0.27838000       0.16930000
   106  H          0.21860000       0.77838000       0.33070000
   107  H          0.21860000       0.72162000       0.83070000
   108  H          0.78140000       0.22162000       0.66930000
   109  H          0.70380000       0.33681100       0.63950000
   110  H          0.29620000       0.83681100       0.86050000
   111  H          0.29620000       0.66318900       0.36050000
   112  H          0.70380000       0.16318900       0.13950000
   113  H          0.71170000       0.29671000       0.55340000
   114  H          0.28830000       0.79671000       0.94660000
   115  H          0.28830000       0.70329000       0.44660000
   116  H          0.71170000       0.20329000       0.05340000
   117  H          0.52870000       0.29949000       0.68640000
   118  H          0.47130000       0.79949000       0.81360000
   119  H          0.47130000       0.70051000       0.31360000
   120  H          0.52870000       0.20051000       0.18640000
