data_KAXXAI05
_symmetry_space_group_name_H-M    'P1'
_symmetry_Int_Tables_number       1
loop_
_symmetry_equiv_pos_site_id
_symmetry_equiv_pos_as_xyz
1 x,y,z
_cell_length_a                   6.74803
_cell_length_b                   29.1534
_cell_length_c                   7.10004
_cell_angle_alpha                90.0
_cell_angle_beta                 112.8293
_cell_angle_gamma                90.0
loop_
_atom_site_label
_atom_site_type_symbol
_atom_site_fract_x
_atom_site_fract_y
_atom_site_fract_z
     1  H          0.15460000       0.48620000       0.66511000
     2  H          0.34540000       0.98620000       0.83489000
     3  H          0.84540000       0.51380000       0.33489000
     4  H          0.65460000       0.01380000       0.16511000
     5  H          0.64520000       0.51500000       0.87890000
     6  H          0.85480000       0.01500000       0.62110000
     7  H          0.35480000       0.48500000       0.12110000
     8  H          0.14520000       0.98500000       0.37890000
     9  H         -0.02530000       0.54760000       0.96550000
    10  H          0.52530000       0.04760000       0.53450000
    11  H          0.02530000       0.45240000       0.03450000
    12  H          0.47470000       0.95240000       0.46550000
    13  H          0.02080000       0.60600000       0.76630000
    14  H          0.47920000       0.10600000       0.73370000
    15  H         -0.02080000       0.39400000       0.23370000
    16  H          0.52080000       0.89400000       0.26630000
    17  H          0.74220000       0.63110000       0.48350000
    18  H          0.75780000       0.13110000       0.01650000
    19  H          0.25780000       0.36890000       0.51650000
    20  H          0.24220000       0.86890000      -0.01650000
    21  H          0.21830000       0.59401500       0.32450000
    22  H          0.28170000       0.09401500       0.17550000
    23  H          0.78170000       0.40598500       0.67550000
    24  H          0.71830000       0.90598500       0.82450000
    25  H          0.57870000       0.60060000       0.11830000
    26  H          0.92130000       0.10060000       0.38170000
    27  H          0.42130000       0.39940000       0.88170000
    28  H          0.07870000       0.89940000       0.61830000
    29  H          0.57550000       0.64930000       0.86440000
    30  H          0.92450000       0.14930000       0.63560000
    31  H          0.42450000       0.35070000       0.13560000
    32  H          0.07550000       0.85070000       0.36440000
    33  H          0.34530000       0.71140000       0.77470000
    34  H          0.15470000       0.21140000       0.72530000
    35  H          0.65470000       0.28860000       0.22530000
    36  H          0.84530000       0.78860000       0.27470000
    37  H          0.02310000       0.71270000       0.23050000
    38  H          0.47690000       0.21270000       0.26950000
    39  H         -0.02310000       0.28730000       0.76950000
    40  H          0.52310000       0.78730000       0.73050000
    41  H          0.94140000       0.66190000       0.20050000
    42  H          0.55860000       0.16190000       0.29950000
    43  H          0.05860000       0.33810000       0.79950000
    44  H          0.44140000       0.83810000       0.70050000
    45  H          0.14460000       0.67550000       0.39360000
    46  H          0.35540000       0.17550000       0.10640000
    47  H          0.85540000       0.32450000       0.60640000
    48  H          0.64460000       0.82450000       0.89360000
    49  Cl         0.04106000       0.74648120       0.91344000
    50  Cl         0.45894000       0.24648120       0.58656000
    51  Cl         0.95894000       0.25351880       0.08656000
    52  Cl         0.54106000       0.75351880       0.41344000
    53  C          0.27609000       0.53069170       0.57568000
    54  C          0.22391000       0.03069170       0.92432000
    55  C          0.72391000       0.46930830       0.42432000
    56  C          0.77609000       0.96930830       0.07568000
    57  C          0.48638000       0.55230160       0.62617000
    58  C          0.01362000       0.05230160       0.87383000
    59  C          0.51362000       0.44769840       0.37383000
    60  C         -0.01362000       0.94769840       0.12617000
    61  C          0.66259000       0.53832000       0.79828000
    62  C          0.83741000       0.03832000       0.70172000
    63  C          0.33741000       0.46168000       0.20172000
    64  C          0.16259000       0.96168000       0.29828000
    65  C          0.86129000       0.55782000       0.85109000
    66  C          0.63871000       0.05782000       0.64891000
    67  C          0.13871000       0.44218000       0.14891000
    68  C          0.36129000       0.94218000       0.35109000
    69  C          0.88631000       0.59252000       0.73041000
    70  C          0.61369000       0.09252000       0.76959000
    71  C          0.11369000       0.40748000       0.26959000
    72  C          0.38631000       0.90748000       0.23041000
    73  C          0.72059000       0.60772000       0.56089000
    74  C          0.77941000       0.10772000       0.93911000
    75  C          0.27941000       0.39228000       0.43911000
    76  C          0.22059000       0.89228000       0.06089000
    77  C          0.51418000       0.58760180       0.50218000
    78  C         -0.01418000       0.08760180      -0.00218000
    79  C          0.48582000       0.41239820       0.49782000
    80  C          0.01418000       0.91239820       0.00218000
    81  C          0.35149000       0.63381190       0.18438000
    82  C          0.14851000       0.13381190       0.31562000
    83  C          0.64851000       0.36618810       0.81562000
    84  C          0.85149000       0.86618810       0.68438000
    85  C          0.48731100       0.62552000       0.08461000
    86  C          0.01268900       0.12552000       0.41539000
    87  C          0.51268900       0.37448000       0.91539000
    88  C         -0.01268900       0.87448000       0.58461000
    89  C          0.48341500       0.65443000       0.93248800
    90  C          0.01658500       0.15443000       0.56751200
    91  C          0.51658500       0.34557000       0.06751200
    92  C         -0.01658500       0.84557000       0.43248800
    93  C          0.34641700       0.69163000       0.87958900
    94  C          0.15358300       0.19163000       0.62041100
    95  C          0.65358300       0.30837000       0.12041100
    96  C          0.84641700       0.80837000       0.37958900
    97  C          0.21291200       0.69862000      -0.02001100
    98  C          0.28708800       0.19862000       0.52001100
    99  C          0.78708800       0.30138000       0.02001100
   100  C          0.71291200       0.80138000       0.47998900
   101  C          0.21119000       0.67052000       0.13489000
   102  C          0.28881000       0.17052000       0.36511000
   103  C          0.78881000       0.32948000       0.86511000
   104  C          0.71119000       0.82948000       0.63489000
   105  C          0.06651400       0.67934000       0.24981500
   106  C          0.43348600       0.17934000       0.25018500
   107  C          0.93348600       0.32066000       0.75018500
   108  C          0.56651400       0.82066000       0.74981500
   109  O          0.27436000       0.49711150       0.69966000
   110  O          0.22564000      -0.00288850       0.80034000
   111  O          0.72564000       0.50288850       0.30034000
   112  O          0.77436000       0.00288850       0.19966000
   113  O          0.11196000       0.54170130       0.43066000
   114  O          0.38804000       0.04170130       0.06934000
   115  O          0.88804000       0.45829870       0.56934000
   116  O          0.61196000       0.95829870       0.93066000
   117  N          0.34487000       0.60276180       0.33408000
   118  N          0.15513000       0.10276180       0.16592000
   119  N          0.65513000       0.39723820       0.66592000
   120  N          0.84487000       0.89723820       0.83408000
