data_KAXXAI03
_symmetry_space_group_name_H-M    'P1'
_symmetry_Int_Tables_number       1
loop_
_symmetry_equiv_pos_site_id
_symmetry_equiv_pos_as_xyz
1 x,y,z
_cell_length_a                   7.52378
_cell_length_b                   14.330816
_cell_length_c                   17.5922
_cell_angle_alpha                103.6802
_cell_angle_beta                 98.2532
_cell_angle_gamma                93.0382
loop_
_atom_site_label
_atom_site_type_symbol
_atom_site_fract_x
_atom_site_fract_y
_atom_site_fract_z
     1  Cl         0.43696120       0.52796600       0.28428600
     2  Cl         0.56303880       0.47203400       0.71571400
     3  O          0.77447000      -0.00638170       0.02769140
     4  O          0.22553000       0.00638170       0.97230860
     5  H          0.84030000       0.96960000      -0.00730000
     6  H          0.15970000       0.03040000       0.00730000
     7  O          0.03303000       0.08283160       0.08131140
     8  O          0.96697000       0.91716840       0.91868860
     9  C          0.87435000       0.05952000       0.08474190
    10  C          0.12565000       0.94048000       0.91525810
    11  C          0.78395000       0.10262000       0.15192000
    12  C          0.21605000       0.89738000       0.84808000
    13  C          0.60305000       0.07232000       0.14992000
    14  C          0.39695000       0.92768000       0.85008000
    15  H          0.54300000       0.02290000       0.10630000
    16  H          0.45700000       0.97710000       0.89370000
    17  C          0.50995000       0.11263000       0.20982000
    18  C          0.49005000       0.88737000       0.79018000
    19  H          0.38730000       0.09140000       0.20780000
    20  H          0.61270000       0.90860000       0.79220000
    21  C          0.59985000       0.18533000       0.27362000
    22  C          0.40015000       0.81467000       0.72638000
    23  H          0.53690000       0.21370000       0.31500000
    24  H          0.46310000       0.78630000       0.68500000
    25  C          0.77765000       0.21642000       0.27742000
    26  C          0.22235000       0.78358000       0.72258000
    27  H          0.83550000       0.26610000       0.32120000
    28  H          0.16450000       0.73390000       0.67880000
    29  C          0.87515000       0.17522000       0.21692000
    30  C          0.12485000       0.82478000       0.78308000
    31  C          0.15875000       0.28182000       0.27902000
    32  C          0.84125000       0.71818000       0.72098000
    33  C          0.20045000       0.27433000       0.35672000
    34  C          0.79955000       0.72567000       0.64328000
    35  H          0.15120000       0.22050000       0.37210000
    36  H          0.84880000       0.77950000       0.62790000
    37  C          0.31495000       0.34613000       0.41192000
    38  C          0.68505000       0.65387000       0.58808000
    39  H          0.34160000       0.34220000       0.46540000
    40  H          0.65840000       0.65780000       0.53460000
    41  C          0.38965000       0.42293000       0.38892000
    42  C          0.61035000       0.57707000       0.61108000
    43  H          0.47170000       0.47070000       0.42580000
    44  H          0.52830000       0.52930000       0.57420000
    45  C          0.34375000       0.42932000       0.31192000
    46  C          0.65625000       0.57068000       0.68808000
    47  C          0.22554000       0.36102000       0.25502000
    48  C          0.77446000       0.63898000       0.74498000
    49  C          0.17115000       0.37373000       0.17262000
    50  C          0.82885000       0.62627000       0.82738000
    51  H          0.27260000       0.36290000       0.14340000
    52  H          0.72740000       0.63710000       0.85660000
    53  H          0.13670000       0.43940000       0.17570000
    54  H          0.86330000       0.56060000       0.82430000
    55  H          0.06840000       0.32720000       0.14520000
    56  H          0.93160000       0.67280000       0.85480000
    57  N          0.05334000       0.20532000       0.22111180
    58  N          0.94666000       0.79468000       0.77888820
    59  H          0.09250000       0.18230000       0.17661500
    60  H          0.90750000       0.81770000       0.82338500
    61  Cl         0.11660120       0.51283600       0.64703600
    62  Cl         0.88339880       0.48716400       0.35296400
    63  O          0.42993000       0.97929830       0.34949140
    64  O          0.57007000       0.02070170       0.65050860
    65  H          0.50150000       0.95070000       0.32030000
    66  H          0.49850000       0.04930000       0.67970000
    67  O          0.68603000       0.06890170       0.40722130
    68  O          0.31397000       0.93109830       0.59277870
    69  C          0.52424000       0.04842000       0.40620180
    70  C          0.47576000       0.95158000       0.59379820
    71  C          0.42354000       0.09842000       0.46674190
    72  C          0.57646000       0.90158000       0.53325810
    73  C          0.23894000       0.07092000       0.46082000
    74  C          0.76106000       0.92908000       0.53918000
    75  H          0.18160000       0.02090000       0.41710000
    76  H          0.81840000       0.97910000       0.58290000
    77  C          0.13915000       0.11483000       0.51672000
    78  C          0.86085000       0.88517000       0.48328000
    79  H          0.01430000       0.09560000       0.51170000
    80  H         -0.01430000       0.90440000       0.48830000
    81  C          0.22495000       0.18792000       0.58062000
    82  C          0.77505000       0.81208000       0.41938000
    83  H          0.15760000       0.21780000       0.62000000
    84  H          0.84240000       0.78220000       0.38000000
    85  C          0.40495000       0.21782000       0.58822000
    86  C          0.59505000       0.78218000       0.41178000
    87  H          0.45930000       0.26840000       0.63200000
    88  H          0.54070000       0.73160000       0.36800000
    89  C          0.50894000       0.17432000       0.53163190
    90  C          0.49106000       0.82568000       0.46836810
    91  C          0.79344000       0.27032000       0.60430190
    92  C          0.20656000       0.72968000       0.39569810
    93  C          0.81394000       0.24912000       0.67812000
    94  C          0.18606000       0.75088000       0.32188000
    95  H          0.74970000       0.19360000       0.68510000
    96  H          0.25030000       0.80640000       0.31490000
    97  C          0.92825000       0.30922000       0.74092000
    98  C          0.07175000       0.69078000       0.25908000
    99  H          0.94280000       0.29520000       0.79150000
   100  H          0.05720000       0.70480000       0.20850000
   101  C          0.02125000       0.38952000       0.73072000
   102  C         -0.02125000       0.61048000       0.26928000
   103  H          0.10080000       0.43060000       0.77380000
   104  H          0.89920000       0.56940000       0.22620000
   105  C         -0.00196000       0.40992000       0.65762000
   106  C          0.00196000       0.59008000       0.34238000
   107  C          0.88354000       0.35192000       0.59202000
   108  C          0.11646000       0.64808000       0.40798000
   109  C          0.86015000       0.37603000       0.51262000
   110  C          0.13985000       0.62397000       0.48738000
   111  H          0.96190000       0.35550000       0.48570000
   112  H          0.03810000       0.64450000       0.51430000
   113  H          0.85560000       0.44580000       0.52020000
   114  H          0.14440000       0.55420000       0.47980000
   115  H          0.74760000       0.34250000       0.48030000
   116  H          0.25240000       0.65750000       0.51970000
   117  N          0.68634000       0.20522000       0.53763170
   118  N          0.31366000       0.79478000       0.46236830
   119  H          0.73550000       0.17730000       0.49671800
   120  H          0.26450000       0.82270000       0.50328200
   121  Cl         0.81659120       0.51666700       0.04689600
   122  Cl         0.18340880       0.48333300       0.95310400
   123  O          0.11203000       0.01196180       0.69467140
   124  O          0.88797000      -0.01196180       0.30532860
   125  H          0.18570000      -0.00740000       0.66430000
   126  H          0.81430000       0.00740000       0.33570000
   127  O          0.36343000       0.10774170       0.75060130
   128  O          0.63657000       0.89225830       0.24939870
   129  C          0.20565000       0.08072000       0.75185190
   130  C          0.79435000       0.91928000       0.24814810
   131  C          0.10514000       0.12212000       0.81569190
   132  C          0.89486000       0.87788000       0.18430810
   133  C          0.92306000       0.09062000       0.80922000
   134  C          0.07694000       0.90938000       0.19078000
   135  H          0.86700000       0.04310000       0.76340000
   136  H          0.13300000       0.95690000       0.23660000
   137  C          0.82365000       0.12632000       0.86732000
   138  C          0.17635000       0.87368000       0.13268000
   139  H          0.70050000       0.10370000       0.86220000
   140  H          0.29950000       0.89630000       0.13780000
   141  C          0.90675000       0.19672000       0.93422000
   142  C          0.09325000       0.80328000       0.06578000
   143  H          0.83910000       0.22190000       0.97480000
   144  H          0.16090000       0.77810000       0.02520000
   145  C          0.08444000       0.23002000       0.94215190
   146  C          0.91556000       0.76998000       0.05784810
   147  H          0.13720000       0.27860000       0.98780000
   148  H          0.86280000       0.72140000       0.01220000
   149  C          0.18974000       0.19322000       0.88379190
   150  C          0.81026000       0.80678000       0.11620810
   151  C          0.47324000       0.27942000       0.96397190
   152  C          0.52676000       0.72058000       0.03602810
   153  C          0.47385000       0.24552000       0.03202000
   154  C          0.52615000       0.75448000       0.96798000
   155  H          0.40320000       0.18750000       0.02940000
   156  H          0.59680000       0.81250000       0.97060000
   157  C          0.57595000       0.29533000       0.10332000
   158  C          0.42405000       0.70467000       0.89668000
   159  H          0.57500000       0.27190000       0.14940000
   160  H          0.42500000       0.72810000       0.85060000
   161  C          0.67875000       0.37893000       0.10702000
   162  C          0.32125000       0.62107000       0.89298000
   163  H          0.74700000       0.41450000       0.15590000
   164  H          0.25300000       0.58550000       0.84410000
   165  C          0.68165000       0.41082000       0.03922000
   166  C          0.31835000       0.58918000       0.96078000
   167  C          0.58104000       0.36292000       0.96532000
   168  C          0.41896000       0.63708000       0.03468000
   169  C          0.58615000       0.39703000       0.89172000
   170  C          0.41385000       0.60297000       0.10828000
   171  H          0.68380000       0.36890000       0.86520000
   172  H          0.31620000       0.63110000       0.13480000
   173  H          0.60710000       0.46740000       0.90550000
   174  H          0.39290000       0.53260000       0.09450000
   175  H          0.47080000       0.37690000       0.85610000
   176  H          0.52920000       0.62310000       0.14390000
   177  N          0.36674000       0.22722000       0.89196170
   178  N          0.63326000       0.77278000       0.10803830
   179  H          0.42050000       0.21330000       0.85081600
   180  H          0.57950000       0.78670000       0.14918400
