data_KAXXAI02
_symmetry_space_group_name_H-M    'P1'
_symmetry_Int_Tables_number       1
loop_
_symmetry_equiv_pos_site_id
_symmetry_equiv_pos_as_xyz
1 x,y,z
_cell_length_a                   7.635615
_cell_length_b                   11.3052
_cell_length_c                   28.0656
_cell_angle_alpha                90.0
_cell_angle_beta                 93.033
_cell_angle_gamma                90.0
loop_
_atom_site_label
_atom_site_type_symbol
_atom_site_fract_x
_atom_site_fract_y
_atom_site_fract_z
     1  Cl         0.96296400       0.10451600       0.25006818
     2  Cl         0.03703600       0.60451600       0.24993182
     3  Cl         0.03703600       0.89548400       0.74993182
     4  Cl         0.96296400       0.39548400       0.75006818
     5  N          0.33942000       0.00273150       0.10981600
     6  N          0.66058000       0.50273150       0.39018400
     7  N          0.66058000      -0.00273150       0.89018400
     8  N          0.33942000       0.49726850       0.60981600
     9  H          0.27260000       0.94410000       0.10170000
    10  H          0.72740000       0.44410000       0.39830000
    11  H          0.72740000       0.05590000       0.89830000
    12  H          0.27260000       0.55590000       0.60170000
    13  O          0.47283180       0.78715130      -0.00426500
    14  O          0.52716820       0.28715130       0.50426500
    15  O          0.52716820       0.21284870       0.00426500
    16  O          0.47283180       0.71284870       0.49573500
    17  H          0.38840000       0.75030000       0.98321100
    18  H          0.61160000       0.25030000       0.51678900
    19  H          0.61160000       0.24970000       0.01678900
    20  H          0.38840000       0.74970000       0.48321100
    21  O          0.26225170       0.84324120       0.04307400
    22  O          0.73774830       0.34324120       0.45692600
    23  O          0.73774830       0.15675880       0.95692600
    24  O          0.26225170       0.65675880       0.54307400
    25  C          0.41592000       0.85016160       0.03118600
    26  C          0.58408000       0.35016160       0.46881400
    27  C          0.58408000       0.14983840       0.96881400
    28  C          0.41592000       0.64983840       0.53118600
    29  C          0.54842000       0.92760160       0.05503600
    30  C          0.45158000       0.42760160       0.44496400
    31  C          0.45158000       0.07239840       0.94496400
    32  C          0.54842000       0.57239840       0.55503600
    33  C          0.71922000       0.92753170       0.03924600
    34  C          0.28078000       0.42753170       0.46075400
    35  C          0.28078000       0.07246830       0.96075400
    36  C          0.71922000       0.57246830       0.53924600
    37  H          0.74680000       0.87750000       0.01440000
    38  H          0.25320000       0.37750000       0.48560000
    39  H          0.25320000       0.12250000       0.98560000
    40  H          0.74680000       0.62250000       0.51440000
    41  C          0.84772000       0.00021170       0.05975700
    42  C          0.15228000       0.50021170       0.44024300
    43  C          0.15228000      -0.00021170       0.94024300
    44  C          0.84772000       0.49978830       0.55975700
    45  H          0.96050000       0.00020000       0.04870000
    46  H          0.03950000       0.50020000       0.45130000
    47  H          0.03950000      -0.00020000       0.95130000
    48  H          0.96050000       0.49980000       0.54870000
    49  C          0.80492000       0.07376170       0.09738600
    50  C          0.19508000       0.57376170       0.40261400
    51  C          0.19508000       0.92623830       0.90261400
    52  C          0.80492000       0.42623830       0.59738600
    53  H          0.89040000       0.12300000       0.11140000
    54  H          0.10960000       0.62300000       0.38860000
    55  H          0.10960000       0.87700000       0.88860000
    56  H          0.89040000       0.37700000       0.61140000
    57  C          0.63882000       0.07494170       0.11407600
    58  C          0.36118000       0.57494170       0.38592400
    59  C          0.36118000       0.92505830       0.88592400
    60  C          0.63882000       0.42505830       0.61407600
    61  H          0.61430000       0.12370000       0.13960000
    62  H          0.38570000       0.62370000       0.36040000
    63  H          0.38570000       0.87630000       0.86040000
    64  H          0.61430000       0.37630000       0.63960000
    65  C          0.50452000       0.00284160       0.09289600
    66  C          0.49548000       0.50284160       0.40710400
    67  C          0.49548000      -0.00284160       0.90710400
    68  C          0.50452000       0.49715840       0.59289600
    69  C          0.26892000       0.08950170       0.13921600
    70  C          0.73108000       0.58950170       0.36078400
    71  C          0.73108000       0.91049830       0.86078400
    72  C          0.26892000       0.41049830       0.63921600
    73  C          0.29303000       0.20919170       0.12971700
    74  C          0.70697000       0.70919170       0.37028300
    75  C          0.70697000       0.79080830       0.87028300
    76  C          0.29303000       0.29080830       0.62971700
    77  H          0.35620000       0.23180000       0.10380000
    78  H          0.64380000       0.73180000       0.39620000
    79  H          0.64380000       0.76820000       0.89620000
    80  H          0.35620000       0.26820000       0.60380000
    81  C          0.22363000       0.29433180       0.15844700
    82  C          0.77637000       0.79433180       0.34155300
    83  C          0.77637000       0.70566820       0.84155300
    84  C          0.22363000       0.20566820       0.65844700
    85  H          0.24330000       0.37400000       0.15250000
    86  H          0.75670000       0.87400000       0.34750000
    87  H          0.75670000       0.62600000       0.84750000
    88  H          0.24330000       0.12600000       0.65250000
    89  C          0.12483000       0.26122190       0.19618700
    90  C          0.87517000       0.76122190       0.30381300
    91  C          0.87517000       0.73877810       0.80381300
    92  C          0.12483000       0.23877810       0.69618700
    93  H          0.07830000       0.31800000       0.21590000
    94  H          0.92170000       0.81800000       0.28410000
    95  H          0.92170000       0.68200000       0.78410000
    96  H          0.07830000       0.18200000       0.71590000
    97  C          0.09642000       0.14175190       0.20411700
    98  C          0.90358000       0.64175190       0.29588300
    99  C          0.90358000       0.85824810       0.79588300
   100  C          0.09642000       0.35824810       0.70411700
   101  C          0.16822000       0.05283170       0.17695600
   102  C          0.83178000       0.55283170       0.32304400
   103  C          0.83178000       0.94716830       0.82304400
   104  C          0.16822000       0.44716830       0.67695600
   105  C          0.14063000       0.92369190       0.18651800
   106  C          0.85937000       0.42369190       0.31348200
   107  C          0.85937000       0.07630810       0.81348200
   108  C          0.14063000       0.57630810       0.68651800
   109  H          0.03940000       0.89630000       0.16790000
   110  H          0.96060000       0.39630000       0.33210000
   111  H          0.96060000       0.10370000       0.83210000
   112  H          0.03940000       0.60370000       0.66790000
   113  H          0.12270000       0.91230000       0.21980000
   114  H          0.87730000       0.41230000       0.28020000
   115  H          0.87730000       0.08770000       0.78020000
   116  H          0.12270000       0.58770000       0.71980000
   117  H          0.24190000       0.87990000       0.17790000
   118  H          0.75810000       0.37990000       0.32210000
   119  H          0.75810000       0.12010000       0.82210000
   120  H          0.24190000       0.62010000       0.67790000
   121  Cl         0.53775600       0.47679500       0.75129919
   122  Cl         0.46224400       0.97679500       0.74870081
   123  Cl         0.46224400       0.52320500       0.24870081
   124  Cl         0.53775600       0.02320500       0.25129919
   125  N          0.16362000       0.48408150       0.89706600
   126  N          0.83638000       0.98408150       0.60293400
   127  N          0.83638000       0.51591850       0.10293400
   128  N          0.16362000       0.01591850       0.39706600
   129  H          0.23300000       0.53260000       0.91230000
   130  H          0.76700000       0.03260000       0.58770000
   131  H          0.76700000       0.46740000       0.08770000
   132  H          0.23300000       0.96740000       0.41230000
   133  O          0.21657180       0.66106130       0.95588500
   134  O          0.78342820       0.16106130       0.54411500
   135  O          0.78342820       0.33893870       0.04411500
   136  O          0.21657180       0.83893870       0.45588500
   137  O          0.00197190       0.71527130       0.00187500
   138  O         -0.00197190       0.21527130       0.49812500
   139  O         -0.00197190       0.28472870      -0.00187500
   140  O          0.00197190       0.78472870       0.50187500
   141  H          0.08540000       0.75730000       0.01381100
   142  H          0.91460000       0.25730000       0.48618900
   143  H          0.91460000       0.24270000       0.98618900
   144  H          0.08540000       0.74270000       0.51381100
   145  C          0.06422000       0.64949160       0.96793600
   146  C          0.93578000       0.14949160       0.53206400
   147  C          0.93578000       0.35050840       0.03206400
   148  C          0.06422000       0.85050840       0.46793600
   149  C          0.94008000       0.56333170       0.94581600
   150  C          0.05992000       0.06333170       0.55418400
   151  C          0.05992000       0.43666830       0.05418400
   152  C          0.94008000       0.93666830       0.44581600
   153  C          0.76638000       0.56232180       0.95939700
   154  C          0.23362000       0.06232180       0.54060300
   155  C          0.23362000       0.43767820       0.04060300
   156  C          0.76638000       0.93767820       0.45939700
   157  H          0.73230000       0.61470000       0.98270000
   158  H          0.26770000       0.11470000       0.51730000
   159  H          0.26770000       0.38530000       0.01730000
   160  H          0.73230000       0.88530000       0.48270000
   161  C          0.64447000       0.48472180       0.93870700
   162  C          0.35553000       0.98472180       0.56129300
   163  C          0.35553000       0.51527820       0.06129300
   164  C          0.64447000       0.01527820       0.43870700
   165  H          0.52950000       0.48430000       0.94810000
   166  H          0.47050000       0.98430000       0.55190000
   167  H          0.47050000       0.51570000       0.05190000
   168  H          0.52950000       0.01570000       0.44810000
   169  C          0.69717000       0.40723170       0.90364700
   170  C          0.30283000       0.90723170       0.59635300
   171  C          0.30283000       0.59276830       0.09635300
   172  C          0.69717000       0.09276830       0.40364700
   173  H          0.61560000       0.35530000       0.88950000
   174  H          0.38440000       0.85530000       0.61050000
   175  H          0.38440000       0.64470000       0.11050000
   176  H          0.61560000       0.14470000       0.38950000
   177  C          0.86708000       0.40572160       0.88947700
   178  C          0.13292000       0.90572160       0.61052300
   179  C          0.13292000       0.59427840       0.11052300
   180  C          0.86708000       0.09427840       0.38947700
   181  H          0.89860000       0.35320000       0.86590000
   182  H          0.10140000       0.85320000       0.63410000
   183  H          0.10140000       0.64680000       0.13410000
   184  H          0.89860000       0.14680000       0.36590000
   185  C         -0.00602000       0.48327160       0.91047600
   186  C          0.00602000       0.98327160       0.58952400
   187  C          0.00602000       0.51672840       0.08952400
   188  C         -0.00602000       0.01672840       0.41047600
   189  C          0.23942000       0.41588170       0.86170700
   190  C          0.76058000       0.91588170       0.63829300
   191  C          0.76058000       0.58411830       0.13829300
   192  C          0.23942000       0.08411830       0.36170700
   193  C          0.23583000       0.29288180       0.86300800
   194  C          0.76417000       0.79288180       0.63699200
   195  C          0.76417000       0.70711820       0.13699200
   196  C          0.23583000       0.20711820       0.36300800
   197  H          0.17670000       0.25400000       0.88650000
   198  H          0.82330000       0.75400000       0.61350000
   199  H          0.82330000       0.74600000       0.11350000
   200  H          0.17670000       0.24600000       0.38650000
   201  C          0.32063000       0.22852180       0.82911800
   202  C          0.67937000       0.72852180       0.67088200
   203  C          0.67937000       0.77147820       0.17088200
   204  C          0.32063000       0.27147820       0.32911800
   205  H          0.31540000       0.14630000       0.82950000
   206  H          0.68460000       0.64630000       0.67050000
   207  H          0.68460000       0.85370000       0.17050000
   208  H          0.31540000       0.35370000       0.32950000
   209  C          0.41293000       0.28532180       0.79479800
   210  C          0.58707000       0.78532180       0.70520200
   211  C          0.58707000       0.71467820       0.20520200
   212  C          0.41293000       0.21467820       0.29479800
   213  H          0.47110000       0.24200000       0.77230000
   214  H          0.52890000       0.74200000       0.72770000
   215  H          0.52890000       0.75800000       0.22770000
   216  H          0.47110000       0.25800000       0.27230000
   217  C          0.41742000       0.40817170       0.79441700
   218  C          0.58258000       0.90817170       0.70558300
   219  C          0.58258000       0.59182830       0.20558300
   220  C          0.41742000       0.09182830       0.29441700
   221  C          0.32982000       0.47636160       0.82688700
   222  C          0.67018000       0.97636160       0.67311300
   223  C          0.67018000       0.52363840       0.17311300
   224  C          0.32982000       0.02363840       0.32688700
   225  C          0.32973000       0.60908170       0.82605800
   226  C          0.67027000       0.10908170       0.67394200
   227  C          0.67027000       0.39091830       0.17394200
   228  C          0.32973000       0.89091830       0.32605800
   229  H          0.21320000       0.63760000       0.83040000
   230  H          0.78680000       0.13760000       0.66960000
   231  H          0.78680000       0.36240000       0.16960000
   232  H          0.21320000       0.86240000       0.33040000
   233  H          0.36800000       0.63620000       0.79590000
   234  H          0.63200000       0.13620000       0.70410000
   235  H          0.63200000       0.36380000       0.20410000
   236  H          0.36800000       0.86380000       0.29590000
   237  H          0.40780000       0.63830000       0.85130000
   238  H          0.59220000       0.13830000       0.64870000
   239  H          0.59220000       0.36170000       0.14870000
   240  H          0.40780000       0.86170000       0.35130000
