data_KAXXAI
_symmetry_space_group_name_H-M    'P1'
_symmetry_Int_Tables_number       1
loop_
_symmetry_equiv_pos_site_id
_symmetry_equiv_pos_as_xyz
1 x,y,z
_cell_length_a                   3.8362
_cell_length_b                   21.9975
_cell_length_c                   14.2057
_cell_angle_alpha                90.0
_cell_angle_beta                 94.114
_cell_angle_gamma                90.0
loop_
_atom_site_label
_atom_site_type_symbol
_atom_site_fract_x
_atom_site_fract_y
_atom_site_fract_z
     1  Cl         0.15819500       0.16287100       0.47690100
     2  Cl         0.34180500       0.66287100       0.02309900
     3  Cl         0.84180500       0.83712900       0.52309900
     4  Cl         0.65819500       0.33712900       0.97690100
     5  O          0.89042000       0.53820300       0.38592400
     6  O          0.60958000       0.03820300       0.11407600
     7  O          0.10958000       0.46179700       0.61407600
     8  O          0.39042000       0.96179700       0.88592400
     9  O          0.81352000       0.44461300       0.44199400
    10  O          0.68648000       0.94461300       0.05800600
    11  O          0.18648000       0.55538700       0.55800600
    12  O          0.31352000       0.05538700       0.94199400
    13  N          0.54152000       0.36054300       0.32461500
    14  N          0.95848000       0.86054300       0.17538500
    15  N          0.45848000       0.63945700       0.67538500
    16  N          0.04152000       0.13945700       0.82461500
    17  C          0.77782000       0.48155300       0.37595500
    18  C          0.72218000       0.98155300       0.12404500
    19  C          0.22218000       0.51844700       0.62404500
    20  C          0.27782000       0.01844700       0.87595500
    21  C          0.60872000       0.46660300       0.28274500
    22  C          0.89128000       0.96660300       0.21725500
    23  C          0.39128000       0.53339700       0.71725500
    24  C          0.10872000       0.03339700       0.78274500
    25  C          0.55972000       0.51325300       0.21542500
    26  C          0.94028000       0.01325300       0.28457500
    27  C          0.44028000       0.48674700       0.78457500
    28  C          0.05972000       0.98674700       0.71542500
    29  C          0.39262000       0.50273400       0.12755600
    30  C          0.10738000       0.00273400       0.37244400
    31  C          0.60738000       0.49726600       0.87244400
    32  C          0.89262000      -0.00273400       0.62755600
    33  C          0.26352000       0.44444400       0.10657500
    34  C          0.23648000       0.94444400       0.39342500
    35  C          0.73648000       0.55555600       0.89342500
    36  C          0.76352000       0.05555600       0.60657500
    37  C          0.30942000       0.39742300       0.17070500
    38  C          0.19058000       0.89742300       0.32929500
    39  C          0.69058000       0.60257700       0.82929500
    40  C          0.80942000       0.10257700       0.67070500
    41  C          0.48872000       0.40672300       0.25978500
    42  C          0.01128000       0.90672300       0.24021500
    43  C          0.51128000       0.59327700       0.74021500
    44  C         -0.01128000       0.09327700       0.75978500
    45  C          0.47362000       0.29804300       0.31360500
    46  C          0.02638000       0.79804300       0.18639500
    47  C          0.52638000       0.70195700       0.68639500
    48  C         -0.02638000       0.20195700       0.81360500
    49  C          0.55232000       0.26628300       0.23228500
    50  C          0.94768000       0.76628300       0.26771500
    51  C          0.44768000       0.73371700       0.76771500
    52  C          0.05232000       0.23371700       0.73228500
    53  C          0.50212000       0.20372400       0.22663500
    54  C         -0.00212000       0.70372400       0.27336500
    55  C          0.49788000       0.79627600       0.77336500
    56  C          0.00212000       0.29627600       0.72663500
    57  C          0.37902000       0.17186300       0.30217600
    58  C          0.12098000       0.67186300       0.19782400
    59  C          0.62098000       0.82813700       0.69782400
    60  C          0.87902000       0.32813700       0.80217600
    61  C          0.30652000       0.20400300       0.38258500
    62  C          0.19348000       0.70400300       0.11741500
    63  C          0.69348000       0.79599700       0.61741500
    64  C          0.80652000       0.29599700       0.88258500
    65  C          0.34692000       0.26683300       0.39117500
    66  C          0.15308000       0.76683300       0.10882500
    67  C          0.65308000       0.73316700       0.60882500
    68  C          0.84692000       0.23316700       0.89117500
    69  C          0.25972000       0.29979400       0.47948500
    70  C          0.24028000       0.79979400       0.02051500
    71  C          0.74028000       0.70020600       0.52051500
    72  C          0.75972000       0.20020600       0.97948500
    73  H          0.00350000       0.54309000       0.44610000
    74  H          0.49650000       0.04309000       0.05390000
    75  H         -0.00350000       0.45691000       0.55390000
    76  H          0.50350000       0.95691000       0.94610000
    77  H          0.65430000       0.55466000       0.23509000
    78  H          0.84570000       0.05466000       0.26491000
    79  H          0.34570000       0.44534000       0.76491000
    80  H          0.15430000       0.94534000       0.73509000
    81  H          0.36730000       0.53426000       0.08329000
    82  H          0.13270000       0.03426000       0.41671000
    83  H          0.63270000       0.46574000       0.91671000
    84  H          0.86730000       0.96574000       0.58329000
    85  H          0.14030000       0.43716000       0.04699000
    86  H          0.35970000       0.93716000       0.45301000
    87  H          0.85970000       0.56284000       0.95301000
    88  H          0.64030000       0.06284000       0.54699000
    89  H          0.20930000       0.35956000       0.15539000
    90  H          0.29070000       0.85956000       0.34461000
    91  H          0.79070000       0.64044000       0.84461000
    92  H          0.70930000       0.14044000       0.65539000
    93  H          0.61540000       0.37176000       0.37939000
    94  H          0.88460000       0.87176000       0.12061000
    95  H          0.38460000       0.62824000       0.62061000
    96  H          0.11540000       0.12824000       0.87939000
    97  H          0.65140000       0.28747000       0.18010000
    98  H          0.84860000       0.78747000       0.31990000
    99  H          0.34860000       0.71253000       0.81990000
   100  H          0.15140000       0.21253000       0.68010000
   101  H          0.55230000       0.18346000       0.17049000
   102  H          0.94770000       0.68346000       0.32951000
   103  H          0.44770000       0.81654000       0.82951000
   104  H          0.05230000       0.31654000       0.67049000
   105  H          0.34930000       0.12616000       0.29989000
   106  H          0.15070000       0.62616000       0.20011000
   107  H          0.65070000       0.87384000       0.70011000
   108  H          0.84930000       0.37384000       0.79989000
   109  H          0.21650000       0.34428000       0.46910000
   110  H          0.28350000       0.84428000       0.03090000
   111  H          0.78350000       0.65572000       0.53090000
   112  H          0.71650000       0.15572000       0.96910000
   113  H          0.44040000       0.29618000       0.52810000
   114  H          0.05960000       0.79618000       0.97190000
   115  H          0.55960000       0.70382000       0.47190000
   116  H          0.94040000       0.20382000       0.02810000
   117  H          0.05540000       0.28397000       0.50010000
   118  H          0.44460000       0.78397000      -0.00010000
   119  H          0.94460000       0.71603000       0.49990000
   120  H          0.55540000       0.21603000       0.00010000
