data_KEBGAB
_symmetry_space_group_name_H-M    'P1'
_symmetry_Int_Tables_number       1
loop_
_symmetry_equiv_pos_site_id
_symmetry_equiv_pos_as_xyz
1 x,y,z
_cell_length_a                   4.79385
_cell_length_b                   6.21785
_cell_length_c                   26.8443
_cell_angle_alpha                90.0
_cell_angle_beta                 90.0
_cell_angle_gamma                90.0
loop_
_atom_site_label
_atom_site_type_symbol
_atom_site_fract_x
_atom_site_fract_y
_atom_site_fract_z
     1  O          0.44678000       0.09094000       0.07291900
     2  O          0.05322000       0.90906000       0.57291900
     3  O          0.94678000       0.40906000       0.92708100
     4  O          0.55322000       0.59094000       0.42708100
     5  H          0.35330000       0.04420000       0.09610000
     6  H          0.14670000       0.95580000       0.59610000
     7  H          0.85330000       0.45580000       0.90390000
     8  H          0.64670000       0.54420000       0.40390000
     9  O          0.21736000       0.09084000       0.15871900
    10  O          0.28264000       0.90916000       0.65871900
    11  O          0.71736000       0.40916000       0.84128100
    12  O          0.78264000       0.59084000       0.34128100
    13  O          0.30985000       0.34974000       0.21321800
    14  O          0.19015000       0.65026000       0.71321800
    15  O          0.80985000       0.15026000       0.78678200
    16  O          0.69015000       0.84974000       0.28678200
    17  N          0.06969000       0.64878000       0.03119170
    18  N          0.43031000       0.35122000       0.53119170
    19  N          0.56969000       0.85122000       0.96880830
    20  N          0.93031000       0.14878000       0.46880830
    21  H          0.10090000       0.58750000       0.00249000
    22  H          0.39910000       0.41250000       0.50249000
    23  H          0.60090000       0.91250000      -0.00249000
    24  H          0.89910000       0.08750000       0.49751000
    25  H          0.17860000       0.75340000       0.04221100
    26  H          0.32140000       0.24660000       0.54221100
    27  H          0.67860000       0.74660000       0.95778900
    28  H          0.82140000       0.25340000       0.45778900
    29  C          0.52588000       0.36406000       0.13430140
    30  C         -0.02588000       0.63594000       0.63430140
    31  C          0.02588000       0.13594000       0.86569860
    32  C          0.47412000       0.86406000       0.36569860
    33  C          0.57621000       0.27456000       0.08717150
    34  C          0.92379000       0.72544000       0.58717150
    35  C          0.07621000       0.22544000       0.91282850
    36  C          0.42379000       0.77456000       0.41282850
    37  C          0.75408000       0.36846000       0.05376140
    38  C          0.74592000       0.63154000       0.55376140
    39  C          0.25408000       0.13154000       0.94623860
    40  C          0.24592000       0.86846000       0.44623860
    41  H          0.78060000       0.30460000       0.02280000
    42  H          0.71940000       0.69540000       0.52280000
    43  H          0.28060000       0.19540000       0.97720000
    44  H          0.21940000       0.80460000       0.47720000
    45  C          0.89469000       0.55567000       0.06510160
    46  C          0.60531000       0.44433000       0.56510160
    47  C          0.39469000       0.94433000       0.93489840
    48  C          0.10531000       0.05567000       0.43489840
    49  C          0.85029000       0.65017000       0.11211140
    50  C          0.64971000       0.34983000       0.61211140
    51  C          0.35029000       0.84983000       0.88788860
    52  C          0.14971000       0.15017000       0.38788860
    53  H          0.94230000       0.77620000       0.12080000
    54  H          0.55770000       0.22380000       0.62080000
    55  H          0.44230000       0.72380000       0.87920000
    56  H          0.05770000       0.27620000       0.37920000
    57  C          0.66969000       0.55396000       0.14488140
    58  C          0.83031000       0.44604000       0.64488140
    59  C          0.16969000       0.94604000       0.85511860
    60  C          0.33031000       0.05396000       0.35511860
    61  H          0.64140000       0.61850000       0.17570000
    62  H          0.85860000       0.38150000       0.67570000
    63  H          0.14140000       0.88150000       0.82430000
    64  H          0.35860000       0.11850000       0.32430000
    65  C          0.33781000       0.26356000       0.17042140
    66  C          0.16219000       0.73644000       0.67042140
    67  C          0.83781000       0.23644000       0.82957860
    68  C          0.66219000       0.76356000       0.32957860
    69  N          0.81481100       0.28926000       0.26661160
    70  N          0.68518900       0.71074000       0.76661160
    71  N          0.31481100       0.21074000       0.73338840
    72  N          0.18518900       0.78926000       0.23338840
    73  H          0.79470000       0.15330000       0.27951100
    74  H          0.70530000       0.84670000       0.77951100
    75  H          0.29470000       0.34670000       0.72048900
    76  H          0.20530000       0.65330000       0.22048900
    77  H          0.66770000       0.33080000       0.24571300
    78  H          0.83230000       0.66920000       0.74571300
    79  H          0.16770000       0.16920000       0.75428700
    80  H          0.33230000       0.83080000       0.25428700
    81  H         -0.02850000       0.29460000       0.24791200
    82  H          0.52850000       0.70540000       0.74791200
    83  H          0.47150000       0.20540000       0.75208800
    84  H          0.02850000       0.79460000       0.25208800
    85  H          0.79810000       0.38860000       0.29281100
    86  H          0.70190000       0.61140000       0.79281100
    87  H          0.29810000       0.11140000       0.70718900
    88  H          0.20190000       0.88860000       0.20718900
