data_KEBGAB02
_symmetry_space_group_name_H-M    'P1'
_symmetry_Int_Tables_number       1
loop_
_symmetry_equiv_pos_site_id
_symmetry_equiv_pos_as_xyz
1 x,y,z
_cell_length_a                   8.7363
_cell_length_b                   3.76001
_cell_length_c                   29.4848
_cell_angle_alpha                90.0
_cell_angle_beta                 94.97213
_cell_angle_gamma                90.0
loop_
_atom_site_label
_atom_site_type_symbol
_atom_site_fract_x
_atom_site_fract_y
_atom_site_fract_z
     1  O          0.51231000       0.00530000       0.06762000
     2  O         -0.01231000       0.50530000       0.43238000
     3  O          0.48769000      -0.00530000       0.93238000
     4  O          0.01231000       0.49470000       0.56762000
     5  H          0.55260000      -0.01750000       0.04370000
     6  H          0.94740000       0.48250000       0.45630000
     7  H          0.44740000       0.01750000       0.95630000
     8  H          0.05260000       0.51750000       0.54370000
     9  O          0.72791100       0.94748200       0.01732000
    10  O          0.77208900       0.44748200       0.48268000
    11  O          0.27208900       0.05251800       0.98268000
    12  O          0.22791100       0.55251800       0.51732000
    13  O          0.97481300       0.07530000       0.03982000
    14  O          0.52518700       0.57530000       0.46018000
    15  O          0.02518700       0.92470000       0.96018000
    16  O          0.47481300       0.42470000       0.53982000
    17  N          0.63318000       0.43620000       0.21762000
    18  N          0.86682000       0.93620000       0.28238000
    19  N          0.36682000       0.56380000       0.78238000
    20  N          0.13318000       0.06380000       0.71762000
    21  H          0.69800000       0.52300000       0.23830000
    22  H          0.80200000       0.02300000       0.26170000
    23  H          0.30200000       0.47700000       0.76170000
    24  H          0.19800000      -0.02300000       0.73830000
    25  H          0.53810000       0.41380000       0.22270000
    26  H          0.96190000       0.91380000       0.27730000
    27  H          0.46190000       0.58620000       0.77730000
    28  H          0.03810000       0.08620000       0.72270000
    29  C          0.77761700       0.15320000       0.09233000
    30  C          0.72238300       0.65320000       0.40767000
    31  C          0.22238300       0.84680000       0.90767000
    32  C          0.27761700       0.34680000       0.59233000
    33  C          0.61701400       0.14430000       0.10033000
    34  C          0.88298600       0.64430000       0.39967000
    35  C          0.38298600       0.85570000       0.89967000
    36  C          0.11701400       0.35570000       0.60033000
    37  C          0.58121400       0.19630000       0.14014000
    38  C          0.91878600       0.69630000       0.35986000
    39  C          0.41878600       0.80370000       0.85986000
    40  C          0.08121400       0.30370000       0.64014000
    41  H          0.48110000       0.13820000       0.14580000
    42  H          0.01890000       0.63820000       0.35420000
    43  H          0.51890000       0.86180000       0.85420000
    44  H          0.98110000       0.36180000       0.64580000
    45  C          0.67911800       0.33830000       0.17803000
    46  C          0.82088200       0.83830000       0.32197000
    47  C          0.32088200       0.66170000       0.82197000
    48  C          0.17911800       0.16170000       0.67803000
    49  C          0.83521500       0.37220000       0.16873000
    50  C          0.66478500       0.87220000       0.33127000
    51  C          0.16478500       0.62780000       0.83127000
    52  C          0.33521500       0.12780000       0.66873000
    53  H          0.90790000       0.46230000       0.19060000
    54  H          0.59210000       0.96230000       0.30940000
    55  H          0.09210000       0.53770000       0.80940000
    56  H          0.40790000       0.03770000       0.69060000
    57  C          0.87771400       0.26730000       0.12633000
    58  C          0.62228600       0.76730000       0.37367000
    59  C          0.12228600       0.73270000       0.87367000
    60  C          0.37771400       0.23270000       0.62633000
    61  H          0.98120000       0.27720000       0.12120000
    62  H          0.51880000       0.77720000       0.37880000
    63  H          0.01880000       0.72280000       0.87880000
    64  H          0.48120000       0.22280000       0.62120000
    65  C          0.83530000       0.04430000       0.04763000
    66  C          0.66470000       0.54430000       0.45237000
    67  C          0.16470000       0.95570000       0.95237000
    68  C          0.33530000       0.45570000       0.54763000
    69  N          0.23511400       0.53750000       0.06146000
    70  N          0.26488600       0.03750000       0.43854000
    71  N          0.76488600       0.46250000       0.93854000
    72  N          0.73511400       0.96250000       0.56146000
    73  H          0.17414000       0.45300000       0.08240000
    74  H          0.32586000       0.95300000       0.41760000
    75  H          0.82586000       0.54700000       0.91760000
    76  H          0.67414000       0.04700000       0.58240000
    77  H          0.21915000       0.77390000       0.06050000
    78  H          0.28085000       0.27390000       0.43950000
    79  H          0.78085000       0.22610000       0.93950000
    80  H          0.71915000       0.72610000       0.56050000
    81  H          0.23200000       0.47100000       0.03240000
    82  H          0.26800000      -0.02900000       0.46760000
    83  H          0.76800000       0.52900000       0.96760000
    84  H          0.73200000       0.02900000       0.53240000
    85  H          0.33360000       0.50500000       0.07350000
    86  H          0.16640000       0.00500000       0.42650000
    87  H          0.66640000       0.49500000       0.92650000
    88  H          0.83360000      -0.00500000       0.57350000
