data_KEBGAB01
_symmetry_space_group_name_H-M    'P1'
_symmetry_Int_Tables_number       1
loop_
_symmetry_equiv_pos_site_id
_symmetry_equiv_pos_as_xyz
1 x,y,z
_cell_length_a                   4.80504
_cell_length_b                   12.02907
_cell_length_c                   14.52309
_cell_angle_alpha                90.0
_cell_angle_beta                 90.0
_cell_angle_gamma                90.0
loop_
_atom_site_label
_atom_site_type_symbol
_atom_site_fract_x
_atom_site_fract_y
_atom_site_fract_z
     1  O          0.01684000       0.53629110       0.79339800
     2  O          0.48316000       0.46370890       0.29339800
     3  O          0.51684000       0.96370890       0.20660200
     4  O         -0.01684000       0.03629110       0.70660200
     5  H          0.95910000       0.54050000       0.74040000
     6  H          0.54090000       0.45950000       0.24040000
     7  H          0.45910000       0.95950000       0.25960000
     8  H          0.04090000       0.04050000       0.75960000
     9  O         -0.00684000       0.49716110       0.62327800
    10  O          0.50684000       0.50283890       0.12327800
    11  O          0.49316000       0.00283890       0.37672200
    12  O          0.00684000      -0.00283890       0.87672200
    13  O          0.23814000       0.36104100       0.56058800
    14  O          0.26186000       0.63895900       0.06058800
    15  O          0.73814000       0.13895900       0.43941200
    16  O          0.76186000       0.86104100       0.93941200
    17  N          0.64285000       0.33118170       0.97992130
    18  N          0.85715000       0.66881830       0.47992130
    19  N          0.14285000       0.16881830       0.02007870
    20  N          0.35715000       0.83118170       0.52007870
    21  C          0.29645000       0.39676150       0.72014120
    22  C          0.20355000       0.60323850       0.22014120
    23  C          0.79645000       0.10323850       0.27985880
    24  C          0.70355000       0.89676150       0.77985880
    25  C          0.21225000       0.45531150       0.79880120
    26  C          0.28775000       0.54468850       0.29880120
    27  C          0.71225000       0.04468850       0.20119880
    28  C          0.78775000       0.95531150       0.70119880
    29  C          0.32605000       0.43229150       0.88389120
    30  C          0.17395000       0.56770850       0.38389120
    31  C          0.82605000       0.06770850       0.11610880
    32  C          0.67395000       0.93229150       0.61610880
    33  H          0.26340000       0.47100000       0.93530000
    34  H          0.23660000       0.52900000       0.43530000
    35  H          0.76340000       0.02900000       0.06470000
    36  H          0.73660000       0.97100000       0.56470000
    37  C          0.53105000       0.35293150       0.89416130
    38  C          0.96895000       0.64706850       0.39416130
    39  C          0.03105000       0.14706850       0.10583870
    40  C          0.46895000       0.85293150       0.60583870
    41  C          0.61715000       0.29266160       0.81668130
    42  C          0.88285000       0.70733840       0.31668130
    43  C          0.11715000       0.20733840       0.18331870
    44  C          0.38285000       0.79266160       0.68331870
    45  H          0.75200000       0.23760000       0.82220000
    46  H          0.74800000       0.76240000       0.32220000
    47  H          0.25200000       0.26240000       0.17780000
    48  H          0.24800000       0.73760000       0.67780000
    49  C          0.50006000       0.31575160       0.73251130
    50  C         -0.00006000       0.68424840       0.23251130
    51  C          0.00006000       0.18424840       0.26748870
    52  C          0.49994000       0.81575160       0.76748870
    53  H          0.55940000       0.27550000       0.68150000
    54  H          0.94060000       0.72450000       0.18150000
    55  H          0.05940000       0.22450000       0.31850000
    56  H          0.44060000       0.77550000       0.81850000
    57  C          0.16975000       0.42059170       0.63016130
    58  C          0.33025000       0.57940830       0.13016130
    59  C          0.66975000       0.07940830       0.36983870
    60  C          0.83025000       0.92059170       0.86983870
    61  H          0.60250000       0.37971700       0.02741300
    62  H          0.89750000       0.62028300       0.52741300
    63  H          0.10250000       0.12028300       0.97258700
    64  H          0.39750000       0.87971700       0.47258700
    65  H          0.80150000       0.29261700       0.98151500
    66  H          0.69850000       0.70738300       0.48151500
    67  H          0.30150000       0.20738300       0.01848500
    68  H          0.19850000       0.79261700       0.51848500
    69  N          0.77655000       0.63120160       0.95506130
    70  N          0.72345000       0.36879840       0.45506130
    71  N          0.27655000       0.86879840       0.04493870
    72  N          0.22345000       0.13120160       0.54493870
    73  H          0.81350000       0.59221200       0.90241000
    74  H          0.68650000       0.40778800       0.40241000
    75  H          0.31350000       0.90778800       0.09759000
    76  H          0.18650000       0.09221200       0.59759000
    77  H          0.75660000       0.70631500       0.93691500
    78  H          0.74340000       0.29368500       0.43691500
    79  H          0.25660000       0.79368500       0.06308500
    80  H          0.24340000       0.20631500       0.56308500
    81  H          0.92550000       0.62220000      -0.00188500
    82  H          0.57450000       0.37780000       0.49811500
    83  H          0.42550000       0.87780000       0.00188500
    84  H          0.07450000       0.12220000       0.50188500
    85  H          0.62760000       0.61330000      -0.00528200
    86  H          0.87240000       0.38670000       0.49471800
    87  H          0.12760000       0.88670000       0.00528200
    88  H          0.37240000       0.11330000       0.50528200
