data_KEBHIK
_symmetry_space_group_name_H-M    'P1'
_symmetry_Int_Tables_number       1
loop_
_symmetry_equiv_pos_site_id
_symmetry_equiv_pos_as_xyz
1 x,y,z
_cell_length_a                   4.9412
_cell_length_b                   10.1135
_cell_length_c                   30.62114
_cell_angle_alpha                90.0
_cell_angle_beta                 93.723
_cell_angle_gamma                90.0
loop_
_atom_site_label
_atom_site_type_symbol
_atom_site_fract_x
_atom_site_fract_y
_atom_site_fract_z
     1  S          0.06096000       0.28182000       0.42537800
     2  S          0.93904000       0.78182000       0.07462200
     3  S          0.93904000       0.71818000       0.57462200
     4  S          0.06096000       0.21818000       0.92537800
     5  C          0.42020000       0.01949000       0.31844000
     6  C          0.57980000       0.51949000       0.18156000
     7  C          0.57980000       0.98051000       0.68156000
     8  C          0.42020000       0.48051000       0.81844000
     9  C          0.53630000       0.01599000       0.36554000
    10  C          0.46370000       0.51599000       0.13446000
    11  C          0.46370000       0.98401000       0.63446000
    12  C          0.53630000       0.48401000       0.86554000
    13  C          0.21120000       0.10469000       0.30704000
    14  C          0.78880000       0.60469000       0.19296000
    15  C          0.78880000       0.89531000       0.69296000
    16  C          0.21120000       0.39531000       0.80704000
    17  C          0.09720000       0.19089000       0.33864000
    18  C          0.90280000       0.69089000       0.16136000
    19  C          0.90280000       0.80911000       0.66136000
    20  C          0.09720000       0.30911000       0.83864000
    21  C          0.41120000       0.09609000       0.39733000
    22  C          0.58880000       0.59609000       0.10267000
    23  C          0.58880000       0.90391000       0.60267000
    24  C          0.41120000       0.40391000       0.89733000
    25  C          0.21820000       0.18598000       0.38663000
    26  C          0.78180000       0.68598000       0.11337000
    27  C          0.78180000       0.81402000       0.61337000
    28  C          0.21820000       0.31402000       0.88663000
    29  C          0.52620000       0.93199000       0.28944000
    30  C          0.47380000       0.43199000       0.21056000
    31  C          0.47380000       0.06801000       0.71056000
    32  C          0.52620000       0.56801000       0.78944000
    33  H          0.66500000       0.87430000       0.29840000
    34  H          0.33500000       0.37430000       0.20160000
    35  H          0.33500000       0.12570000       0.70160000
    36  H          0.66500000       0.62570000       0.79840000
    37  C          0.50320000       0.06939000       0.44523000
    38  C          0.49680000       0.56939000       0.05477000
    39  C          0.49680000       0.93061000       0.55477000
    40  C          0.50320000       0.43061000       0.94523000
    41  H          0.51740000       0.15160000       0.46080000
    42  H          0.48260000       0.65160000       0.03920000
    43  H          0.48260000       0.84840000       0.53920000
    44  H          0.51740000       0.34840000       0.96080000
    45  H          0.67570000       0.02590000       0.44670000
    46  H          0.32430000       0.52590000       0.05330000
    47  H          0.32430000       0.97410000       0.55330000
    48  H          0.67570000       0.47410000       0.94670000
    49  H          0.37200000       0.01380000       0.45810000
    50  H          0.62800000       0.51380000       0.04190000
    51  H          0.62800000      -0.01380000       0.54190000
    52  H          0.37200000       0.48620000       0.95810000
    53  C          0.21230000       0.01901400       0.23494000
    54  C          0.78770000       0.51901400       0.26506000
    55  C          0.78770000       0.98098600       0.76506000
    56  C          0.21230000       0.48098600       0.73494000
    57  H          0.13830000       0.01960000       0.20620000
    58  H          0.86170000       0.51960000       0.29380000
    59  H          0.86170000       0.98040000       0.79380000
    60  H          0.13830000       0.48040000       0.70620000
    61  C          0.11020000       0.10441100       0.26374000
    62  C          0.88980000       0.60441100       0.23626000
    63  C          0.88980000       0.89558900       0.73626000
    64  C          0.11020000       0.39558900       0.76374000
    65  H         -0.02790000       0.16270000       0.25450000
    66  H          0.02790000       0.66270000       0.24550000
    67  H          0.02790000       0.83730000       0.74550000
    68  H         -0.02790000       0.33730000       0.75450000
    69  C          0.41730000       0.93288800       0.24555000
    70  C          0.58270000       0.43288800       0.25445000
    71  C          0.58270000       0.06711200       0.75445000
    72  C          0.41730000       0.56711200       0.74555000
    73  H          0.48250000       0.87640000       0.22470000
    74  H          0.51750000       0.37640000       0.27530000
    75  H          0.51750000       0.12360000       0.77530000
    76  H          0.48250000       0.62360000       0.72470000
    77  C          0.94180000       0.54839000       0.42203000
    78  C          0.05820000       0.04839000       0.07797000
    79  C          0.05820000       0.45161000       0.57797000
    80  C          0.94180000       0.95161000       0.92203000
    81  C          0.32420000       0.59921100       0.35923000
    82  C          0.67580000       0.09921100       0.14077000
    83  C          0.67580000       0.40078900       0.64077000
    84  C          0.32420000       0.90078900       0.85923000
    85  H          0.45270000       0.61560000       0.33910000
    86  H          0.54730000       0.11560000       0.16090000
    87  H          0.54730000       0.38440000       0.66090000
    88  H          0.45270000       0.88440000       0.83910000
    89  C         -0.01420000       0.67599000       0.40413000
    90  C          0.01420000       0.17599000       0.09587000
    91  C          0.01420000       0.32401000       0.59587000
    92  C         -0.01420000       0.82401000       0.90413000
    93  H          0.88720000       0.74620000       0.41460000
    94  H          0.11280000       0.24620000       0.08540000
    95  H          0.11280000       0.25380000       0.58540000
    96  H          0.88720000       0.75380000       0.91460000
    97  C          0.29620000       0.47491000       0.37533000
    98  C          0.70380000       0.97491000       0.12467000
    99  C          0.70380000       0.52509000       0.62467000
   100  C          0.29620000       0.02509000       0.87533000
   101  H          0.40480000       0.40760000       0.36540000
   102  H          0.59520000       0.90760000       0.13460000
   103  H          0.59520000       0.59240000       0.63460000
   104  H          0.40480000       0.09240000       0.86540000
   105  C          0.10820000       0.44558000       0.40613000
   106  C          0.89180000       0.94558000       0.09387000
   107  C          0.89180000       0.55442000       0.59387000
   108  C          0.10820000       0.05442000       0.90613000
   109  C          0.16120000       0.70241100       0.37273000
   110  C          0.83880000       0.20241100       0.12727000
   111  C          0.83880000       0.29758900       0.62727000
   112  C          0.16120000       0.79758900       0.87273000
   113  H          0.17210000       0.78650000       0.36060000
   114  H          0.82790000       0.28650000       0.13940000
   115  H          0.82790000       0.21350000       0.63940000
   116  H          0.17210000       0.71350000       0.86060000
   117  C          0.76780000       0.52921200       0.45613000
   118  C          0.23220000       0.02921200       0.04387000
   119  C          0.23220000       0.47078800       0.54387000
   120  C          0.76780000       0.97078800       0.95613000
   121  O          0.72988600       0.42377000       0.47452000
   122  O          0.27011400       0.92377000       0.02548000
   123  O          0.27011400       0.57623000       0.52548000
   124  O          0.72988600       0.07623000       0.97452000
   125  O          0.89408500       0.25947000       0.33102000
   126  O          0.10591500       0.75947000       0.16898000
   127  O          0.10591500       0.74053000       0.66898000
   128  O          0.89408500       0.24053000       0.83102000
   129  O          0.61648600       0.63486000       0.46582000
   130  O          0.38351400       0.13486000       0.03418000
   131  O          0.38351400       0.36514000       0.53418000
   132  O          0.61648600       0.86514000       0.96582000
   133  H          0.49560000       0.61130000       0.48120000
   134  H          0.50440000       0.11130000       0.01880000
   135  H          0.50440000       0.38870000       0.51880000
   136  H          0.49560000       0.88870000       0.98120000
   137  O          0.74811600       0.95083000       0.37472000
   138  O          0.25188400       0.45083000       0.12528000
   139  O          0.25188400       0.04917000       0.62528000
   140  O          0.74811600       0.54917000       0.87472000
