data_KEBHIK02
_symmetry_space_group_name_H-M    'P1'
_symmetry_Int_Tables_number       1
loop_
_symmetry_equiv_pos_site_id
_symmetry_equiv_pos_as_xyz
1 x,y,z
_cell_length_a                   4.78154
_cell_length_b                   7.93075
_cell_length_c                   20.853015
_cell_angle_alpha                89.0254
_cell_angle_beta                 83.9424
_cell_angle_gamma                73.1304
loop_
_atom_site_label
_atom_site_type_symbol
_atom_site_fract_x
_atom_site_fract_y
_atom_site_fract_z
     1  S          0.84842160       0.05303800       0.17235300
     2  S          0.15157840       0.94696200       0.82764700
     3  C          0.72396000       0.83923000       0.35286110
     4  C          0.27604000       0.16077000       0.64713890
     5  C          0.46846000       0.95933000       0.38076120
     6  C          0.53154000       0.04067000       0.61923880
     7  C          0.84317000       0.68344000       0.38383140
     8  C          0.15683000       0.31656000       0.61616860
     9  H          0.01480000       0.60300000       0.36550000
    10  H         -0.01480000       0.39700000       0.63450000
    11  C          0.33787000       0.92284000       0.43973130
    12  C          0.66213000       0.07716000       0.56026870
    13  H          0.16840000       0.00370000       0.45880000
    14  H          0.83160000      -0.00370000       0.54120000
    15  C          0.70678000       0.64705000       0.44217160
    16  C          0.29322000       0.35295000       0.55782840
    17  H          0.78400000       0.54090000       0.46250000
    18  H          0.21600000       0.45910000       0.53750000
    19  C          0.45749000       0.76785000       0.47005150
    20  C          0.54251000       0.23215000       0.52994850
    21  H          0.36920000       0.74440000       0.50980000
    22  H          0.63080000       0.25560000       0.49020000
    23  C          0.45066000       0.14813000       0.27950120
    24  C          0.54934000       0.85187000       0.72049880
    25  C          0.86816000       0.88013000       0.29018120
    26  C          0.13184000       0.11987000       0.70981880
    27  C          0.33606000       0.12344000       0.34712130
    28  C          0.66394000       0.87656000       0.65287870
    29  C          0.69576000       0.02793000       0.25181110
    30  C          0.30424000       0.97207000       0.74818890
    31  O          0.11874000       0.79543000       0.27129900
    32  O          0.88126000       0.20457000       0.72870100
    33  O          0.12286000       0.23583000       0.37270110
    34  O          0.87714000       0.76417000       0.62729890
    35  C          0.27817000       0.30534000       0.24610140
    36  C          0.72183000       0.69466000       0.75389860
    37  H          0.33550000       0.40660000       0.25720000
    38  H          0.66450000       0.59340000       0.74280000
    39  H          0.07240000       0.32540000       0.25930000
    40  H          0.92760000       0.67460000       0.74070000
    41  H          0.31500000       0.28550000       0.20030000
    42  H          0.68500000       0.71450000       0.79970000
    43  C          0.11685000       0.59883000       0.06567110
    44  C          0.88315000       0.40117000       0.93432890
    45  H          0.25370000       0.55040000       0.03090000
    46  H          0.74630000       0.44960000       0.96910000
    47  C          0.08475000       0.77073000       0.08575100
    48  C          0.91525000       0.22927000       0.91424900
    49  C          0.70645000       0.74173000       0.16693110
    50  C          0.29355000       0.25827000       0.83306890
    51  H          0.56150000       0.79020000       0.20030000
    52  H          0.43850000       0.20980000       0.79970000
    53  C          0.88255000       0.84183000       0.13929110
    54  C          0.11745000       0.15817000       0.86070890
    55  C          0.74256000       0.57343000       0.14590120
    56  C          0.25744000       0.42657000       0.85409880
    57  H          0.62430000       0.50870000       0.16560000
    58  H          0.37570000       0.49130000       0.83440000
    59  C          0.95146000       0.49893000       0.09592120
    60  C          0.04854000       0.50107000       0.90407880
    61  H          0.98030000       0.38310000       0.08280000
    62  H          0.01970000       0.61690000       0.91720000
    63  C          0.25935000       0.87403000       0.04922100
    64  C          0.74065000       0.12597000       0.95077900
    65  O          0.45344000       0.78402000       0.00346800
    66  O          0.54656000       0.21598000      -0.00346800
    67  H          0.54270000       0.84830000       0.98520000
    68  H          0.45730000       0.15170000       0.01480000
    69  O          0.22394000       0.03062000       0.05932700
    70  O          0.77606000       0.96938000       0.94067300
