data_KEBHIK01
_symmetry_space_group_name_H-M    'P1'
_symmetry_Int_Tables_number       1
loop_
_symmetry_equiv_pos_site_id
_symmetry_equiv_pos_as_xyz
1 x,y,z
_cell_length_a                   4.90353
_cell_length_b                   22.146812
_cell_length_c                   27.486814
_cell_angle_alpha                90.0
_cell_angle_beta                 90.0
_cell_angle_gamma                90.0
loop_
_atom_site_label
_atom_site_type_symbol
_atom_site_fract_x
_atom_site_fract_y
_atom_site_fract_z
     1  S          0.11502000       0.46298400       0.58873300
     2  S          0.38498000       0.53701600       0.08873300
     3  S          0.88498000       0.96298400       0.91126700
     4  S          0.61502000       0.03701600       0.41126700
     5  C          0.65617000       0.39248150       0.45227120
     6  C          0.84383000       0.60751850       0.95227120
     7  C          0.34383000       0.89248150       0.04772880
     8  C          0.15617000       0.10751850       0.54772880
     9  C          0.89508000       0.29825160       0.45613140
    10  C          0.60492000       0.70174840       0.95613140
    11  C          0.10492000       0.79825160       0.04386860
    12  C          0.39508000       0.20174840       0.54386860
    13  H          0.02480000       0.27340000       0.47060000
    14  H          0.47520000       0.72660000       0.97060000
    15  H         -0.02480000       0.77340000       0.02940000
    16  H          0.52480000       0.22660000       0.52940000
    17  C          0.75027000       0.47437140       0.51574120
    18  C          0.74973000       0.52562860       0.01574120
    19  C          0.24973000       0.97437140       0.98425880
    20  C          0.25027000       0.02562860       0.48425880
    21  C          0.85087000       0.35592160       0.47373110
    22  C          0.64913000       0.64407840       0.97373110
    23  C          0.14913000       0.85592160       0.02626890
    24  C          0.35087000       0.14407840       0.52626890
    25  C          0.51368000       0.37184180       0.41249130
    26  C         -0.01368000       0.62815820       0.91249130
    27  C          0.48632000       0.87184180       0.08750870
    28  C          0.01368000       0.12815820       0.58750870
    29  H          0.38660000       0.39670000       0.39730000
    30  H          0.11340000       0.60330000       0.89730000
    31  H          0.61340000       0.89670000       0.10270000
    32  H          0.88660000       0.10330000       0.60270000
    33  O          0.40616000       0.48222110       0.45663900
    34  O          0.09384000       0.51777890       0.95663900
    35  O          0.59384000       0.98222110       0.04336100
    36  O          0.90616000       0.01777890       0.54336100
    37  C          0.01148000       0.37885150       0.51578120
    38  C          0.48852000       0.62114850       0.01578120
    39  C         -0.01148000       0.87885150       0.98421880
    40  C          0.51148000       0.12114850       0.48421880
    41  C          0.55839000       0.31492000       0.39523130
    42  C          0.94161000       0.68508000       0.89523130
    43  C          0.44161000       0.81492000       0.10476870
    44  C          0.05839000       0.18508000       0.60476870
    45  H          0.46080000       0.30120000       0.36840000
    46  H          0.03920000       0.69880000       0.86840000
    47  H          0.53920000       0.80120000       0.13160000
    48  H          0.96080000       0.19880000       0.63160000
    49  C          0.74479000       0.27772170       0.41690150
    50  C          0.75521000       0.72227830       0.91690150
    51  C          0.25521000       0.77772170       0.08309850
    52  C          0.24479000       0.22227830       0.58309850
    53  H          0.77040000       0.23870000       0.40530000
    54  H          0.72960000       0.76130000       0.90530000
    55  H          0.22960000       0.73870000       0.09470000
    56  H          0.27040000       0.26130000       0.59470000
    57  C          0.93007000       0.43748140       0.53787110
    58  C          0.56993000       0.56251860       0.03787110
    59  C          0.06993000       0.93748140       0.96212890
    60  C          0.43007000       0.06251860       0.46212890
    61  C          0.68668000       0.53749140       0.53249120
    62  C          0.81332000       0.46250860       0.03249120
    63  C          0.31332000       0.03749140       0.96750880
    64  C          0.18668000       0.96250860       0.46750880
    65  H          0.66960000       0.53800000       0.56730000
    66  H          0.83040000       0.46200000       0.06730000
    67  H          0.33040000       0.03800000       0.93270000
    68  H          0.16960000       0.96200000       0.43270000
    69  H          0.51850000       0.55060000       0.51810000
    70  H         -0.01850000       0.44940000       0.01810000
    71  H          0.48150000       0.05060000       0.98190000
    72  H          0.01850000       0.94940000       0.48190000
    73  H          0.83120000       0.56410000       0.52280000
    74  H          0.66880000       0.43590000       0.02280000
    75  H          0.16880000       0.06410000       0.97720000
    76  H          0.33120000       0.93590000       0.47720000
    77  C          0.39767000       0.44895150       0.68848130
    78  C          0.10233000       0.55104850       0.18848130
    79  C          0.60233000       0.94895150       0.81151870
    80  C          0.89767000       0.05104850       0.31151870
    81  C          0.03807000       0.40704130       0.63267110
    82  C          0.46193000       0.59295870       0.13267110
    83  C          0.96193000       0.90704130       0.86732890
    84  C          0.53807000       0.09295870       0.36732890
    85  C          0.18566000       0.40423140       0.67640120
    86  C          0.31434000       0.59576860       0.17640120
    87  C          0.81434000       0.90423140       0.82359880
    88  C          0.68566000       0.09576860       0.32359880
    89  C          0.77187000       0.32214140       0.65959140
    90  C          0.72813000       0.67785860       0.15959140
    91  C          0.22813000       0.82214140       0.84040860
    92  C          0.27187000       0.17785860       0.34040860
    93  H          0.63050000       0.29500000       0.65410000
    94  H          0.86950000       0.70500000       0.15410000
    95  H          0.36950000       0.79500000       0.84590000
    96  H          0.13050000       0.20500000       0.34590000
    97  C          0.82797000       0.36567150       0.62568110
    98  C          0.67203000       0.63432850       0.12568110
    99  C          0.17203000       0.86567150       0.87431890
   100  C          0.32797000       0.13432850       0.37431890
   101  H          0.72370000       0.36760000       0.59740000
   102  H          0.77630000       0.63240000       0.09740000
   103  H          0.27630000       0.86760000       0.90260000
   104  H          0.22370000       0.13240000       0.40260000
   105  C          0.92268000       0.31800140       0.70195130
   106  C          0.57732000       0.68199860       0.20195130
   107  C          0.07732000       0.81800140       0.79804870
   108  C          0.42268000       0.18199860       0.29804870
   109  H          0.88670000       0.28770000       0.72450000
   110  H          0.61330000       0.71230000       0.22450000
   111  H          0.11330000       0.78770000       0.77550000
   112  H          0.38670000       0.21230000       0.27550000
   113  C          0.12567000       0.35920140       0.71023110
   114  C          0.37433000       0.64079860       0.21023110
   115  C          0.87433000       0.85920140       0.78976890
   116  C          0.62567000       0.14079860       0.28976890
   117  H          0.22540000       0.35710000       0.73900000
   118  H          0.27460000       0.64290000       0.23900000
   119  H          0.77460000       0.85710000       0.76100000
   120  H          0.72540000       0.14290000       0.26100000
   121  O          0.44805000       0.49187100       0.66179800
   122  O          0.05195000       0.50812900       0.16179800
   123  O          0.55195000       0.99187100       0.83820200
   124  O          0.94805000       0.00812900       0.33820200
   125  O          0.20795000       0.35116100       0.53108800
   126  O          0.29205000       0.64883900       0.03108800
   127  O          0.79205000       0.85116100       0.96891200
   128  O          0.70795000       0.14883900       0.46891200
   129  C          0.59468000       0.45247160       0.47281120
   130  C          0.90532000       0.54752840       0.97281120
   131  C          0.40532000       0.95247160       0.02718880
   132  C          0.09468000       0.04752840       0.52718880
   133  O          0.52105000       0.43997900       0.72968800
   134  O         -0.02105000       0.56002100       0.22968800
   135  O          0.47895000       0.93997900       0.77031200
   136  O          0.02105000       0.06002100       0.27031200
   137  H          0.62810000       0.46770000       0.73480000
   138  H          0.87190000       0.53230000       0.23480000
   139  H          0.37190000       0.96770000       0.76520000
   140  H          0.12810000       0.03230000       0.26520000
   141  S          0.12032000       0.66728400       0.64348300
   142  S          0.37968000       0.33271600       0.14348300
   143  S          0.87968000       0.16728400       0.85651700
   144  S          0.62032000       0.83271600       0.35651700
   145  C          0.13909000       0.79229170       0.65083130
   146  C          0.36091000       0.20770830       0.15083130
   147  C          0.86091000       0.29229170       0.84916870
   148  C          0.63909000       0.70770830       0.34916870
   149  C          0.24637000       0.85234160       0.63798120
   150  C          0.25363000       0.14765840       0.13798120
   151  C          0.75363000       0.35234160       0.86201880
   152  C          0.74637000       0.64765840       0.36201880
   153  C          0.54238000       0.91358190       0.58949120
   154  C          0.95762000       0.08641810       0.08949120
   155  C          0.45762000       0.41358190       0.91050880
   156  C          0.04238000       0.58641810       0.41050880
   157  H          0.67070000       0.91730000       0.56480000
   158  H          0.82930000       0.08270000       0.06480000
   159  H          0.32930000       0.41730000       0.93520000
   160  H          0.17070000       0.58270000       0.43520000
   161  C          0.15589000       0.90368180       0.66180120
   162  C          0.34411000       0.09631820       0.16180120
   163  C          0.84411000       0.40368180       0.83819880
   164  C          0.65589000       0.59631820       0.33819880
   165  H          0.02370000       0.90060000       0.68600000
   166  H          0.47630000       0.09940000       0.18600000
   167  H         -0.02370000       0.40060000       0.81400000
   168  H          0.52370000       0.59940000       0.31400000
   169  C          0.25678000       0.73820160       0.62704130
   170  C          0.24322000       0.26179840       0.12704130
   171  C          0.74322000       0.23820160       0.87295870
   172  C          0.75678000       0.76179840       0.37295870
   173  C          0.43658000       0.74308160       0.59008130
   174  C          0.06342000       0.25691840       0.09008130
   175  C          0.56342000       0.24308160       0.90991870
   176  C          0.93658000       0.75691840       0.40991870
   177  C          0.44108000       0.85743160       0.60117120
   178  C          0.05892000       0.14256840       0.10117120
   179  C          0.55892000       0.35743160       0.89882880
   180  C          0.94108000       0.64256840       0.39882880
   181  C          0.53669000       0.80424180       0.57520140
   182  C          0.96331000       0.19575820       0.07520140
   183  C          0.46331000       0.30424180       0.92479860
   184  C          0.03669000       0.69575820       0.42479860
   185  C          0.45579000       0.96417190       0.61396150
   186  C          0.04421000       0.03582810       0.11396150
   187  C          0.54421000       0.46417190       0.88603850
   188  C          0.95579000       0.53582810       0.38603850
   189  H          0.52880000       0.00170000       0.60630000
   190  H          0.97120000      -0.00170000       0.10630000
   191  H          0.47120000       0.50170000       0.89370000
   192  H          0.02880000       0.49830000       0.39370000
   193  C          0.26131000       0.95930180       0.64970150
   194  C          0.23869000       0.04069820       0.14970150
   195  C          0.73869000       0.45930180       0.85029850
   196  C          0.76131000       0.54069820       0.35029850
   197  H          0.20070000      -0.00630000       0.66580000
   198  H          0.29930000       0.00630000       0.16580000
   199  H          0.79930000       0.49370000       0.83420000
   200  H          0.70070000       0.50630000       0.33420000
   201  C          0.55179000       0.69110160       0.56209130
   202  C          0.94821000       0.30889840       0.06209130
   203  C          0.44821000       0.19110160       0.93790870
   204  C          0.05179000       0.80889840       0.43790870
   205  H          0.56910000       0.65670000       0.58320000
   206  H          0.93090000       0.34330000       0.08320000
   207  H          0.43090000       0.15670000       0.91680000
   208  H          0.06910000       0.84330000       0.41680000
   209  H          0.72790000       0.70190000       0.54960000
   210  H          0.77210000       0.29810000       0.04960000
   211  H          0.27210000       0.20190000       0.95040000
   212  H          0.22790000       0.79810000       0.45040000
   213  H          0.43210000       0.68130000       0.53560000
   214  H          0.06790000       0.31870000       0.03560000
   215  H          0.56790000       0.18130000       0.96440000
   216  H          0.93210000       0.81870000       0.46440000
   217  C          0.25377000       0.65671140       0.70268110
   218  C          0.24623000       0.34328860       0.20268110
   219  C          0.74623000       0.15671140       0.79731890
   220  C          0.75377000       0.84328860       0.29731890
   221  C          0.16526000       0.60852140       0.73197120
   222  C          0.33474000       0.39147860       0.23197120
   223  C          0.83474000       0.10852140       0.76802880
   224  C          0.66526000       0.89147860       0.26802880
   225  C          0.45797000       0.69413140       0.72080130
   226  C          0.04203000       0.30586860       0.22080130
   227  C          0.54203000       0.19413140       0.77919870
   228  C          0.95797000       0.80586860       0.27919870
   229  H          0.52390000       0.72540000       0.70160000
   230  H         -0.02390000       0.27460000       0.20160000
   231  H          0.47610000       0.22540000       0.79840000
   232  H          0.02390000       0.77460000       0.29840000
   233  C          0.95453000       0.56360160       0.71851130
   234  C          0.54547000       0.43639840       0.21851130
   235  C          0.04547000       0.06360160       0.78148870
   236  C          0.45453000       0.93639840       0.28148870
   237  C          0.56327000       0.68575150       0.76624140
   238  C          0.93673000       0.31424850       0.26624140
   239  C          0.43673000       0.18575150       0.73375860
   240  C          0.06327000       0.81424850       0.23375860
   241  H          0.69650000       0.71200000       0.77770000
   242  H          0.80350000       0.28800000       0.27770000
   243  H          0.30350000       0.21200000       0.72230000
   244  H          0.19650000       0.78800000       0.22230000
   245  C          0.28147000       0.60052150       0.77771130
   246  C          0.21853000       0.39947850       0.27771130
   247  C          0.71853000       0.10052150       0.72228870
   248  C          0.78147000       0.89947850       0.22228870
   249  H          0.22590000       0.56810000       0.79680000
   250  H          0.27410000       0.43190000       0.29680000
   251  H          0.77410000       0.06810000       0.70320000
   252  H          0.72590000       0.93190000       0.20320000
   253  C          0.47538000       0.63924180       0.79525120
   254  C          0.02462000       0.36075820       0.29525120
   255  C          0.52462000       0.13924180       0.70474880
   256  C         -0.02462000       0.86075820       0.20474880
   257  H          0.54650000       0.63410000       0.82630000
   258  H          0.95350000       0.36590000       0.32630000
   259  H          0.45350000       0.13410000       0.67370000
   260  H          0.04650000       0.86590000       0.17370000
   261  O          0.90345000       0.52063110       0.74490900
   262  O          0.59655000       0.47936890       0.24490900
   263  O          0.09655000       0.02063110       0.75509100
   264  O          0.40345000       0.97936890       0.25509100
   265  O          0.83465000       0.57237900       0.67721800
   266  O          0.66535000       0.42762100       0.17721800
   267  O          0.16535000       0.07237900       0.82278200
   268  O          0.33465000       0.92762100       0.32278200
   269  H          0.72060000       0.54590000       0.67280000
   270  H          0.77940000       0.45410000       0.17280000
   271  H          0.27940000       0.04590000       0.82720000
   272  H          0.22060000       0.95410000       0.32720000
   273  O          0.95454000       0.78719110       0.68057100
   274  O          0.54546000       0.21280890       0.18057100
   275  O          0.04546000       0.28719110       0.81942900
   276  O          0.45454000       0.71280890       0.31942900
   277  O          0.70538000       0.80782130       0.54297120
   278  O          0.79462000       0.19217870       0.04297120
   279  O          0.29462000       0.30782130       0.95702880
   280  O          0.20538000       0.69217870       0.45702880
