data_KEHFAH01
_symmetry_space_group_name_H-M    'P1'
_symmetry_Int_Tables_number       1
loop_
_symmetry_equiv_pos_site_id
_symmetry_equiv_pos_as_xyz
1 x,y,z
_cell_length_a                   4.20554
_cell_length_b                   29.1993
_cell_length_c                   8.19327
_cell_angle_alpha                90.0
_cell_angle_beta                 92.3427
_cell_angle_gamma                90.0
loop_
_atom_site_label
_atom_site_type_symbol
_atom_site_fract_x
_atom_site_fract_y
_atom_site_fract_z
     1  C          0.73980000       0.17234000       0.28571300
     2  C          0.26020000       0.67234000       0.21428700
     3  C          0.26020000       0.82766000       0.71428700
     4  C          0.73980000       0.32766000       0.78571300
     5  C          0.81270000       0.17574000       0.44691400
     6  C          0.18730000       0.67574000       0.05308600
     7  C          0.18730000       0.82426000       0.55308600
     8  C          0.81270000       0.32426000       0.94691400
     9  H          0.92800000       0.20080000       0.48690000
    10  H          0.07200000       0.70080000       0.01310000
    11  H          0.07200000       0.79920000       0.51310000
    12  H          0.92800000       0.29920000      -0.01310000
    13  C          0.71670000       0.14244000       0.55271400
    14  C          0.28330000       0.64244000       0.94728600
    15  C          0.28330000       0.85756000       0.44728600
    16  C          0.71670000       0.35756000       0.05271400
    17  H          0.76860000       0.14490000       0.66380000
    18  H          0.23140000       0.64490000       0.83620000
    19  H          0.23140000       0.85510000       0.33620000
    20  H          0.76860000       0.35510000       0.16380000
    21  C          0.54370000       0.10534000       0.49511500
    22  C          0.45630000       0.60534000       0.00488500
    23  C          0.45630000       0.89466000       0.50488500
    24  C          0.54370000       0.39466000      -0.00488500
    25  C          0.48970000       0.10064000       0.32801600
    26  C          0.51030000       0.60064000       0.17198400
    27  C          0.51030000       0.89936000       0.67198400
    28  C          0.48970000       0.39936000       0.82801600
    29  H          0.38480000       0.07490000       0.28580000
    30  H          0.61520000       0.57490000       0.21420000
    31  H          0.61520000       0.92510000       0.71420000
    32  H          0.38480000       0.42510000       0.78580000
    33  C          0.59270000       0.13464000       0.22411400
    34  C          0.40730000       0.63464000       0.27588600
    35  C          0.40730000       0.86536000       0.77588600
    36  C          0.59270000       0.36536000       0.72411400
    37  H          0.56030000       0.13140000       0.11180000
    38  H          0.43970000       0.63140000       0.38820000
    39  H          0.43970000       0.86860000       0.88820000
    40  H          0.56030000       0.36860000       0.61180000
    41  C          0.41260000       0.07035000       0.60291900
    42  C          0.58740000       0.57035000       0.89708100
    43  C          0.58740000       0.92965000       0.39708100
    44  C          0.41260000       0.42965000       0.10291900
    45  H          0.36760000       0.04160000       0.55810000
    46  H          0.63240000       0.54160000       0.94190000
    47  H          0.63240000       0.95840000       0.44190000
    48  H          0.36760000       0.45840000       0.05810000
    49  C          0.35560000       0.07655000       0.75691900
    50  C          0.64440000       0.57655000       0.74308100
    51  C          0.64440000       0.92345000       0.24308100
    52  C          0.35560000       0.42345000       0.25691900
    53  H          0.41270000       0.10440000       0.80470000
    54  H          0.58730000       0.60440000       0.69530000
    55  H          0.58730000       0.89560000       0.19530000
    56  H          0.41270000       0.39560000       0.30470000
    57  C          0.20460000       0.04125000       0.86020000
    58  C          0.79540000       0.54125000       0.63980000
    59  C          0.79540000       0.95875000       0.13980000
    60  C          0.20460000       0.45875000       0.36020000
    61  N          0.82370000       0.20953000       0.17741200
    62  N          0.17630000       0.70953000       0.32258800
    63  N          0.17630000       0.79047000       0.82258800
    64  N          0.82370000       0.29047000       0.67741200
    65  H          0.94450000       0.22980000       0.23250000
    66  H          0.05550000       0.72980000       0.26750000
    67  H          0.05550000       0.77020000       0.76750000
    68  H          0.94450000       0.27020000       0.73250000
    69  H          0.64710000       0.22320000       0.13880000
    70  H          0.35290000       0.72320000       0.36120000
    71  H          0.35290000       0.77680000       0.86120000
    72  H          0.64710000       0.27680000       0.63880000
    73  H          0.93050000       0.19840000       0.09460000
    74  H          0.06950000       0.69840000       0.40540000
    75  H          0.06950000       0.80160000       0.90540000
    76  H          0.93050000       0.30160000       0.59460000
    77  O          0.13770000       0.05374000       0.00021400
    78  O          0.86230000       0.55374000       0.49978600
    79  O          0.86230000       0.94626000      -0.00021400
    80  O          0.13770000       0.44626000       0.50021400
    81  O          0.13860000       0.00324000       0.79991400
    82  O          0.86140000       0.50324000       0.70008600
    83  O          0.86140000      -0.00324000       0.20008600
    84  O          0.13860000       0.49676000       0.29991400
    85  H          0.02600000       0.98140000       0.87200000
    86  H         -0.02600000       0.48140000       0.62800000
    87  H         -0.02600000       0.01860000       0.12800000
    88  H          0.02600000       0.51860000       0.37200000
    89  Br         0.29543000       0.28729400       0.36529130
    90  Br         0.70457000       0.78729400       0.13470870
    91  Br         0.70457000       0.71270600       0.63470870
    92  Br         0.29543000       0.21270600       0.86529130
