data_KEHFAH
_symmetry_space_group_name_H-M    'P1'
_symmetry_Int_Tables_number       1
loop_
_symmetry_equiv_pos_site_id
_symmetry_equiv_pos_as_xyz
1 x,y,z
_cell_length_a                   4.42485
_cell_length_b                   27.8044
_cell_length_c                   8.18768
_cell_angle_alpha                90.0
_cell_angle_beta                 104.43311
_cell_angle_gamma                90.0
loop_
_atom_site_label
_atom_site_type_symbol
_atom_site_fract_x
_atom_site_fract_y
_atom_site_fract_z
     1  C          0.62902000       0.66058170       0.63015000
     2  C          0.37098000       0.16058170       0.86985000
     3  C          0.37098000       0.33941830       0.36985000
     4  C          0.62902000       0.83941830       0.13015000
     5  C          0.75209000       0.61848180       0.69755000
     6  C          0.24791000       0.11848180       0.80245000
     7  C          0.24791000       0.38151820       0.30245000
     8  C          0.75209000       0.88151820       0.19755000
     9  H          0.74290000       0.60960000       0.80580000
    10  H          0.25710000       0.10960000       0.69420000
    11  H          0.25710000       0.39040000       0.19420000
    12  H          0.74290000       0.89040000       0.30580000
    13  C          0.89059000       0.58909170       0.60375000
    14  C          0.10941000       0.08909170       0.89625000
    15  C          0.10941000       0.41090830       0.39625000
    16  C          0.89059000       0.91090830       0.10375000
    17  H         -0.02680000       0.55990000       0.64910000
    18  H          0.02680000       0.05990000       0.85090000
    19  H          0.02680000       0.44010000       0.35090000
    20  H         -0.02680000       0.94010000       0.14910000
    21  C          0.91132000       0.60163160       0.44265000
    22  C          0.08868000       0.10163160       0.05735000
    23  C          0.08868000       0.39836840       0.55735000
    24  C          0.91132000       0.89836840       0.94265000
    25  C          0.78149000       0.64471170       0.37665000
    26  C          0.21851000       0.14471170       0.12335000
    27  C          0.21851000       0.35528830       0.62335000
    28  C          0.78149000       0.85528830       0.87665000
    29  H          0.78960000       0.65380000       0.26860000
    30  H          0.21040000       0.15380000       0.23140000
    31  H          0.21040000       0.34620000       0.73140000
    32  H          0.78960000       0.84620000       0.76860000
    33  C          0.64051000       0.67416170       0.46985000
    34  C          0.35949000       0.17416170       0.03015000
    35  C          0.35949000       0.32583830       0.53015000
    36  C          0.64051000       0.82583830       0.96985000
    37  H          0.55300000       0.70320000       0.42510000
    38  H          0.44700000       0.20320000       0.07490000
    39  H          0.44700000       0.29680000       0.57490000
    40  H          0.55300000       0.79680000       0.92510000
    41  C          0.06759000       0.56933160       0.34795000
    42  C          0.93241000       0.06933160       0.15205000
    43  C          0.93241000       0.43066840       0.65205000
    44  C          0.06759000       0.93066840       0.84795000
    45  H          0.13010000       0.53950000       0.39630000
    46  H          0.86990000       0.03950000       0.10370000
    47  H          0.86990000       0.46050000       0.60370000
    48  H          0.13010000       0.96050000       0.89630000
    49  C          0.12829000       0.57842170       0.20055000
    50  C          0.87171000       0.07842170       0.29945000
    51  C          0.87171000       0.42157830       0.79945000
    52  C          0.12829000       0.92157830       0.70055000
    53  H          0.06470000       0.60770000       0.14830000
    54  H          0.93530000       0.10770000       0.35170000
    55  H          0.93530000       0.39230000       0.85170000
    56  H          0.06470000       0.89230000       0.64830000
    57  C          0.29211000       0.54410180       0.11594000
    58  C          0.70789000       0.04410180       0.38406000
    59  C          0.70789000       0.45589820       0.88406000
    60  C          0.29211000       0.95589820       0.61594000
    61  N          0.49822000       0.69364140       0.73266000
    62  N          0.50178000       0.19364140       0.76734000
    63  N          0.50178000       0.30635860       0.26734000
    64  N          0.49822000       0.80635860       0.23266000
    65  H          0.34390000       0.67920000       0.76550000
    66  H          0.65610000       0.17920000       0.73450000
    67  H          0.65610000       0.32080000       0.23450000
    68  H          0.34390000       0.82080000       0.26550000
    69  H          0.42490000       0.71960000       0.67220000
    70  H          0.57510000       0.21960000       0.82780000
    71  H          0.57510000       0.28040000       0.32780000
    72  H          0.42490000       0.78040000       0.17220000
    73  H          0.64630000       0.70230000       0.82300000
    74  H          0.35370000       0.20230000       0.67700000
    75  H          0.35370000       0.29770000       0.17700000
    76  H          0.64630000       0.79770000       0.32300000
    77  O          0.37237000       0.50313130       0.17986000
    78  O          0.62763000       0.00313130       0.32014000
    79  O          0.62763000       0.49686870       0.82014000
    80  O          0.37237000      -0.00313130       0.67986000
    81  O          0.34907000       0.55839140       0.97886000
    82  O          0.65093000       0.05839140       0.52114000
    83  O          0.65093000       0.44160860       0.02114000
    84  O          0.34907000       0.94160860       0.47886000
    85  H          0.37640000       0.53500000       0.92310000
    86  H          0.62360000       0.03500000       0.57690000
    87  H          0.62360000       0.46500000       0.07690000
    88  H          0.37640000       0.96500000       0.42310000
    89  Br         0.12606100       0.71096419       0.02988500
    90  Br         0.87393900       0.21096419       0.47011500
    91  Br         0.87393900       0.28903581       0.97011500
    92  Br         0.12606100       0.78903581       0.52988500
