data_KEHFAH02
_symmetry_space_group_name_H-M    'P1'
_symmetry_Int_Tables_number       1
loop_
_symmetry_equiv_pos_site_id
_symmetry_equiv_pos_as_xyz
1 x,y,z
_cell_length_a                   5.87233
_cell_length_b                   8.82686
_cell_length_c                   18.869115
_cell_angle_alpha                90.0
_cell_angle_beta                 92.6605
_cell_angle_gamma                90.0
loop_
_atom_site_label
_atom_site_type_symbol
_atom_site_fract_x
_atom_site_fract_y
_atom_site_fract_z
     1  C          0.14897000       0.28995000       0.58552000
     2  C          0.85103000       0.78995000       0.91448000
     3  C          0.85103000       0.71005000       0.41448000
     4  C          0.14897000       0.21005000       0.08552000
     5  H          0.28200000       0.23320000       0.58340000
     6  H          0.71800000       0.73320000       0.91660000
     7  H          0.71800000       0.76680000       0.41660000
     8  H          0.28200000       0.26680000       0.08340000
     9  C          0.11406000       0.37485000       0.64452000
    10  C          0.88594000       0.87485000       0.85548000
    11  C          0.88594000       0.62515000       0.35548000
    12  C          0.11406000       0.12515000       0.14452000
    13  H          0.22200000       0.37620000       0.68220000
    14  H          0.77800000       0.87620000       0.81780000
    15  H          0.77800000       0.62380000       0.31780000
    16  H          0.22200000       0.12380000       0.18220000
    17  C          0.91604000       0.45865000       0.64752000
    18  C          0.08396000       0.95865000       0.85248000
    19  C          0.08396000       0.54135000       0.35248000
    20  C          0.91604000       0.04135000       0.14752000
    21  C          0.75274000       0.45635000       0.59342000
    22  C          0.24726000       0.95635000       0.90658000
    23  C          0.24726000       0.54365000       0.40658000
    24  C          0.75274000       0.04365000       0.09342000
    25  H          0.61900000       0.51180000       0.59650000
    26  H          0.38100000       0.01180000       0.90350000
    27  H          0.38100000       0.48820000       0.40350000
    28  H          0.61900000      -0.01180000       0.09650000
    29  C          0.79064000       0.37005000       0.53402000
    30  C          0.20936000       0.87005000       0.96598000
    31  C          0.20936000       0.62995000       0.46598000
    32  C          0.79064000       0.12995000       0.03402000
    33  H          0.68050000       0.36780000       0.49700000
    34  H          0.31950000       0.86780000       0.00300000
    35  H          0.31950000       0.63220000       0.50300000
    36  H          0.68050000       0.13220000      -0.00300000
    37  C         -0.00987000       0.28605000       0.52832000
    38  C          0.00987000       0.78605000       0.97168000
    39  C          0.00987000       0.71395000       0.47168000
    40  C         -0.00987000       0.21395000       0.02832000
    41  C          0.02917000       0.20355000       0.46312000
    42  C          0.97083000       0.70355000       0.03688000
    43  C          0.97083000       0.79645000       0.53688000
    44  C          0.02917000       0.29645000       0.96312000
    45  H          0.91490000       0.21030000       0.42750000
    46  H          0.08510000       0.71030000       0.07250000
    47  H          0.08510000       0.78970000       0.57250000
    48  H          0.91490000       0.28970000       0.92750000
    49  C          0.20857000       0.11995000       0.44882000
    50  C          0.79143000       0.61995000       0.05118000
    51  C          0.79143000       0.88005000       0.55118000
    52  C          0.20857000       0.38005000       0.94882000
    53  H          0.32660000       0.10780000       0.48290000
    54  H          0.67340000       0.60780000       0.01710000
    55  H          0.67340000       0.89220000       0.51710000
    56  H          0.32660000       0.39220000       0.98290000
    57  C          0.22177000       0.04645000       0.37952000
    58  C          0.77823000       0.54645000       0.12048000
    59  C          0.77823000       0.95355000       0.62048000
    60  C          0.22177000       0.45355000       0.87952000
    61  N          0.88603000       0.55356000       0.70932000
    62  N          0.11397000       0.05356000       0.79068000
    63  N          0.11397000       0.44644000       0.29068000
    64  N          0.88603000       0.94644000       0.20932000
    65  H          0.73990000       0.60570000       0.70630000
    66  H          0.26010000       0.10570000       0.79370000
    67  H          0.26010000       0.39430000       0.29370000
    68  H          0.73990000       0.89430000       0.20630000
    69  H          0.91210000       0.49580000       0.74730000
    70  H          0.08790000      -0.00420000       0.75270000
    71  H          0.08790000       0.50420000       0.25270000
    72  H          0.91210000       0.00420000       0.24730000
    73  H         -0.02011000       0.63010000       0.71340000
    74  H          0.02011000       0.13010000       0.78660000
    75  H          0.02011000       0.36990000       0.28660000
    76  H         -0.02011000       0.86990000       0.21340000
    77  O          0.39186000       0.94714000       0.37742180
    78  O          0.60814000       0.44714000       0.12257820
    79  O          0.60814000       0.05286000       0.62257820
    80  O          0.39186000       0.55286000       0.87742180
    81  H          0.38990000       0.92380000       0.33730000
    82  H          0.61010000       0.42380000       0.16270000
    83  H          0.61010000       0.07620000       0.66270000
    84  H          0.38990000       0.57620000       0.83730000
    85  O          0.09415000       0.07375000       0.32963160
    86  O          0.90585000       0.57375000       0.17036840
    87  O          0.90585000       0.92625000       0.67036840
    88  O          0.09415000       0.42625000       0.82963160
    89  Br         0.39369700       0.77485600       0.22542200
    90  Br         0.60630300       0.27485600       0.27457800
    91  Br         0.60630300       0.22514400       0.77457800
    92  Br         0.39369700       0.72514400       0.72542200
