data_KELFOX02
_symmetry_space_group_name_H-M    'P1'
_symmetry_Int_Tables_number       1
loop_
_symmetry_equiv_pos_site_id
_symmetry_equiv_pos_as_xyz
1 x,y,z
_cell_length_a                   7.680313
_cell_length_b                   18.5494
_cell_length_c                   11.2293
_cell_angle_alpha                90.0
_cell_angle_beta                 92.71115
_cell_angle_gamma                90.0
loop_
_atom_site_label
_atom_site_type_symbol
_atom_site_fract_x
_atom_site_fract_y
_atom_site_fract_z
     1  Cl         0.24107110       0.18254500       0.83447800
     2  Cl         0.25892890       0.68254500       0.66552200
     3  Cl         0.75892890       0.81745500       0.16552200
     4  Cl         0.74107110       0.31745500       0.33447800
     5  Cl         0.48988140       0.36853700       0.07402110
     6  Cl         0.01011860       0.86853700       0.42597890
     7  Cl         0.51011860       0.63146300       0.92597890
     8  Cl        -0.01011860       0.13146300       0.57402110
     9  N          0.44234000       0.42976150       0.38923000
    10  N          0.05766000       0.92976150       0.11077000
    11  N          0.55766000       0.57023850       0.61077000
    12  N          0.94234000       0.07023850       0.88923000
    13  N          0.84243000       0.42056900       0.67111160
    14  N          0.65757000       0.92056900       0.82888840
    15  N          0.15757000       0.57943100       0.32888840
    16  N          0.34243000       0.07943100       0.17111160
    17  N          0.07043000       0.43407900       0.53970170
    18  N          0.42957000       0.93407900       0.96029830
    19  N          0.92957000       0.56592100       0.46029830
    20  N          0.57043000       0.06592100       0.03970170
    21  C          0.30065000       0.39605190      -0.00457000
    22  C          0.19935000       0.89605190       0.50457000
    23  C          0.69935000       0.60394810       0.00457000
    24  C          0.80065000       0.10394810       0.49543000
    25  C          0.30895000       0.44671190       0.90643000
    26  C          0.19105000       0.94671190       0.59357000
    27  C          0.69105000       0.55328810       0.09357000
    28  C          0.80895000       0.05328810       0.40643000
    29  C          0.15854000       0.46682160       0.84373000
    30  C          0.34146000       0.96682160       0.65627000
    31  C          0.84146000       0.53317840       0.15627000
    32  C          0.65854000       0.03317840       0.34373000
    33  C         -0.00096000       0.43661130       0.86793000
    34  C          0.50096000       0.93661130       0.63207000
    35  C          0.00096000       0.56338870       0.13207000
    36  C          0.49904000       0.06338870       0.36793000
    37  C         -0.00496000       0.38750160       0.96053000
    38  C          0.50496000       0.88750160       0.53947000
    39  C          0.00496000       0.61249840       0.03947000
    40  C          0.49504000       0.11249840       0.46053000
    41  C          0.14325000       0.36729180       0.02483000
    42  C          0.35675000       0.86729180       0.47517000
    43  C          0.85675000       0.63270820       0.97517000
    44  C          0.64325000       0.13270820       0.52483000
    45  C          0.14423000       0.47433120       0.45662000
    46  C          0.35577000       0.97433120       0.04338000
    47  C          0.85577000       0.52566880       0.54338000
    48  C          0.64423000       0.02566880       0.95662000
    49  C          0.92593000       0.45950110       0.58552000
    50  C          0.57407000       0.95950110       0.91448000
    51  C          0.07407000       0.54049890       0.41448000
    52  C          0.42593000       0.04049890       0.08552000
    53  C          0.83774000       0.45303140       0.79233000
    54  C          0.66226000       0.95303140       0.70767000
    55  C          0.16226000       0.54696860       0.20767000
    56  C          0.33774000       0.04696860       0.29233000
    57  C          0.86854000       0.34189120       0.67133000
    58  C          0.63146000       0.84189120       0.82867000
    59  C          0.13146000       0.65810880       0.32867000
    60  C          0.36854000       0.15810880       0.17133000
    61  C          0.30864000       0.44895130       0.41713000
    62  C          0.19136000       0.94895130       0.08287000
    63  C          0.69136000       0.55104870       0.58287000
    64  C          0.80864000       0.05104870       0.91713000
    65  C          0.71053000       0.30423120       0.71592000
    66  C          0.78947000       0.80423120       0.78408000
    67  C          0.28947000       0.69576880       0.28408000
    68  C          0.21053000       0.19576880       0.21592000
    69  C          0.54564000       0.31846150       0.66563000
    70  C          0.95436000       0.81846150       0.83437000
    71  C          0.45436000       0.68153850       0.33437000
    72  C          0.04564000       0.18153850       0.16563000
    73  C          0.40144000       0.28242180       0.70183000
    74  C          0.09856000       0.78242180       0.79817000
    75  C          0.59856000       0.71757820       0.29817000
    76  C          0.90144000       0.21757820       0.20183000
    77  C          0.42064000       0.23119150       0.79033000
    78  C          0.07936000       0.73119150       0.70967000
    79  C          0.57936000       0.76880850       0.20967000
    80  C          0.92064000       0.26880850       0.29033000
    81  C          0.72614000       0.25274130       0.80473000
    82  C          0.77386000       0.75274130       0.69527000
    83  C          0.27386000       0.74725870       0.19527000
    84  C          0.22614000       0.24725870       0.30473000
    85  C          0.58264000       0.21659140       0.84293000
    86  C          0.91736000       0.71659140       0.65707000
    87  C          0.41736000       0.78340860       0.15707000
    88  C          0.08264000       0.28340860       0.34293000
    89  H          0.41520000       0.46720000       0.88880000
    90  H          0.08480000       0.96720000       0.61120000
    91  H          0.58480000       0.53280000       0.11120000
    92  H          0.91520000       0.03280000       0.38880000
    93  H          0.16400000       0.50130000       0.78380000
    94  H          0.33600000       0.00130000       0.71620000
    95  H          0.83600000       0.49870000       0.21620000
    96  H          0.66400000      -0.00130000       0.28380000
    97  H          0.88880000       0.36760000       0.97970000
    98  H          0.61120000       0.86760000       0.52030000
    99  H          0.11120000       0.63240000       0.02030000
   100  H          0.38880000       0.13240000       0.47970000
   101  H          0.13740000       0.33460000       0.08730000
   102  H          0.36260000       0.83460000       0.41270000
   103  H          0.86260000       0.66540000       0.91270000
   104  H          0.63740000       0.16540000       0.58730000
   105  H          0.73680000       0.43480000       0.83150000
   106  H          0.76320000       0.93480000       0.66850000
   107  H          0.26320000       0.56520000       0.16850000
   108  H          0.23680000       0.06520000       0.33150000
   109  H          0.82490000       0.50490000       0.78470000
   110  H          0.67510000       0.00490000       0.71530000
   111  H          0.17510000       0.49510000       0.21530000
   112  H          0.32490000      -0.00490000       0.28470000
   113  H          0.96990000       0.32980000       0.72210000
   114  H          0.53010000       0.82980000       0.77790000
   115  H          0.03010000       0.67020000       0.27790000
   116  H          0.46990000       0.17020000       0.22210000
   117  H          0.88930000       0.32560000       0.59110000
   118  H          0.61070000       0.82560000       0.90890000
   119  H          0.11070000       0.67440000       0.40890000
   120  H          0.38930000       0.17440000       0.09110000
   121  H          0.53260000       0.35320000       0.60610000
   122  H          0.96740000       0.85320000       0.89390000
   123  H          0.46740000       0.64680000       0.39390000
   124  H          0.03260000       0.14680000       0.10610000
   125  H          0.29180000       0.29240000       0.66700000
   126  H          0.20820000       0.79240000       0.83300000
   127  H          0.70820000       0.70760000       0.33300000
   128  H          0.79180000       0.20760000       0.16700000
   129  H          0.83570000       0.24230000       0.83930000
   130  H          0.66430000       0.74230000       0.66070000
   131  H          0.16430000       0.75770000       0.16070000
   132  H          0.33570000       0.25770000       0.33930000
   133  H          0.59470000       0.18260000       0.90370000
   134  H          0.90530000       0.68260000       0.59630000
   135  H          0.40530000       0.81740000       0.09630000
   136  H          0.09470000       0.31740000       0.40370000
