data_KELFOX01
_symmetry_space_group_name_H-M    'P1'
_symmetry_Int_Tables_number       1
loop_
_symmetry_equiv_pos_site_id
_symmetry_equiv_pos_as_xyz
1 x,y,z
_cell_length_a                   23.4855
_cell_length_b                   5.9741
_cell_length_c                   22.5937
_cell_angle_alpha                90.0
_cell_angle_beta                 102.691
_cell_angle_gamma                90.0
loop_
_atom_site_label
_atom_site_type_symbol
_atom_site_fract_x
_atom_site_fract_y
_atom_site_fract_z
     1  Cl         0.98563700       0.86018000       0.32559300
     2  Cl         0.48563700       0.36018000       0.32559300
     3  Cl         0.01436300       0.86018000       0.17440700
     4  Cl         0.51436300       0.36018000       0.17440700
     5  Cl         0.01436300       0.13982000       0.67440700
     6  Cl         0.51436300       0.63982000       0.67440700
     7  Cl         0.98563700       0.13982000       0.82559300
     8  Cl         0.48563700       0.63982000       0.82559300
     9  Cl         0.09481400       0.55899000       0.79948400
    10  Cl         0.59481400       0.05899000       0.79948400
    11  Cl         0.90518600       0.55899000       0.70051600
    12  Cl         0.40518600       0.05899000       0.70051600
    13  Cl         0.90518600       0.44101000       0.20051600
    14  Cl         0.40518600       0.94101000       0.20051600
    15  Cl         0.09481400       0.44101000       0.29948400
    16  Cl         0.59481400       0.94101000       0.29948400
    17  N          0.19986700       0.37203000       0.50302800
    18  N          0.69986700       0.87203000       0.50302800
    19  N          0.80013300       0.37203000      -0.00302800
    20  N          0.30013300       0.87203000      -0.00302800
    21  N          0.80013300       0.62797000       0.49697200
    22  N          0.30013300       0.12797000       0.49697200
    23  N          0.19986700       0.62797000       0.00302800
    24  N          0.69986700       0.12797000       0.00302800
    25  N          0.28801000       0.70456000       0.59381000
    26  N          0.78801000       0.20456000       0.59381000
    27  N          0.71199000       0.70456000       0.90619000
    28  N          0.21199000       0.20456000       0.90619000
    29  N          0.71199000       0.29544000       0.40619000
    30  N          0.21199000       0.79544000       0.40619000
    31  N          0.28801000       0.29544000       0.09381000
    32  N          0.78801000       0.79544000       0.09381000
    33  N          0.18192700       0.13353000       0.57984800
    34  N          0.68192700       0.63353000       0.57984800
    35  N          0.81807300       0.13353000       0.92015200
    36  N          0.31807300       0.63353000       0.92015200
    37  N          0.81807300       0.86647000       0.42015200
    38  N          0.31807300       0.36647000       0.42015200
    39  N          0.18192700       0.86647000       0.07984800
    40  N          0.68192700       0.36647000       0.07984800
    41  C          0.21606900       0.19784000       0.53931000
    42  C          0.71606900       0.69784000       0.53931000
    43  C          0.78393100       0.19784000       0.96069000
    44  C          0.28393100       0.69784000       0.96069000
    45  C          0.78393100       0.80216000       0.46069000
    46  C          0.28393100       0.30216000       0.46069000
    47  C          0.21606900       0.80216000       0.03931000
    48  C          0.71606900       0.30216000       0.03931000
    49  C          0.26625900       0.07614000       0.53541000
    50  C          0.76625900       0.57614000       0.53541000
    51  C          0.73374100       0.07614000       0.96459000
    52  C          0.23374100       0.57614000       0.96459000
    53  C          0.73374100       0.92386000       0.46459000
    54  C          0.23374100       0.42386000       0.46459000
    55  C          0.26625900       0.92386000       0.03541000
    56  C          0.76625900       0.42386000       0.03541000
    57  C          0.28021000       0.87185000       0.56921000
    58  C          0.78021000       0.37185000       0.56921000
    59  C          0.71979000       0.87185000       0.93079000
    60  C          0.21979000       0.37185000       0.93079000
    61  C          0.71979000       0.12815000       0.43079000
    62  C          0.21979000       0.62815000       0.43079000
    63  C          0.28021000       0.12815000       0.06921000
    64  C          0.78021000       0.62815000       0.06921000
    65  C          0.12122900       0.21234000       0.56461000
    66  C          0.62122900       0.71234000       0.56461000
    67  C          0.87877100       0.21234000       0.93539000
    68  C          0.37877100       0.71234000       0.93539000
    69  C          0.87877100       0.78766000       0.43539000
    70  C          0.37877100       0.28766000       0.43539000
    71  C          0.12122900       0.78766000       0.06461000
    72  C          0.62122900       0.28766000       0.06461000
    73  C          0.21011000       0.14814000       0.64481000
    74  C          0.71011000       0.64814000       0.64481000
    75  C          0.78989000       0.14814000       0.85519000
    76  C          0.28989000       0.64814000       0.85519000
    77  C          0.78989000       0.85186000       0.35519000
    78  C          0.28989000       0.35186000       0.35519000
    79  C          0.21011000       0.85186000       0.14481000
    80  C          0.71011000       0.35186000       0.14481000
    81  C          0.08822800       0.12234000       0.50461000
    82  C          0.58822800       0.62234000       0.50461000
    83  C          0.91177200       0.12234000      -0.00461000
    84  C          0.41177200       0.62234000      -0.00461000
    85  C          0.91177200       0.87766000       0.49539000
    86  C          0.41177200       0.37766000       0.49539000
    87  C          0.08822800       0.87766000       0.00461000
    88  C          0.58822800       0.37766000       0.00461000
    89  C          0.04491000       0.24875000       0.46891000
    90  C          0.54491000       0.74875000       0.46891000
    91  C          0.95509000       0.24875000       0.03109000
    92  C          0.45509000       0.74875000       0.03109000
    93  C          0.95509000       0.75125000       0.53109000
    94  C          0.45509000       0.25125000       0.53109000
    95  C          0.04491000       0.75125000       0.96891000
    96  C          0.54491000       0.25125000       0.96891000
    97  C          0.01291000       0.16846000       0.41401000
    98  C          0.51291000       0.66846000       0.41401000
    99  C          0.98709000       0.16846000       0.08599000
   100  C          0.48709000       0.66846000       0.08599000
   101  C          0.98709000       0.83154000       0.58599000
   102  C          0.48709000       0.33154000       0.58599000
   103  C          0.01291000       0.83154000       0.91401000
   104  C          0.51291000       0.33154000       0.91401000
   105  C          0.02521000       0.96165000       0.39441000
   106  C          0.52521000       0.46165000       0.39441000
   107  C          0.97479000       0.96165000       0.10559000
   108  C          0.47479000       0.46165000       0.10559000
   109  C          0.97479000       0.03835000       0.60559000
   110  C          0.47479000       0.53835000       0.60559000
   111  C          0.02521000       0.03835000       0.89441000
   112  C          0.52521000       0.53835000       0.89441000
   113  C          0.06811000       0.83365000       0.42881000
   114  C          0.56811000       0.33365000       0.42881000
   115  C          0.93189000       0.83365000       0.07119000
   116  C          0.43189000       0.33365000       0.07119000
   117  C          0.93189000       0.16635000       0.57119000
   118  C          0.43189000       0.66635000       0.57119000
   119  C          0.06811000       0.16635000       0.92881000
   120  C          0.56811000       0.66635000       0.92881000
   121  C          0.09951000       0.91276000       0.48381000
   122  C          0.59951000       0.41276000       0.48381000
   123  C          0.90049000       0.91276000       0.01619000
   124  C          0.40049000       0.41276000       0.01619000
   125  C          0.90049000       0.08724000       0.51619000
   126  C          0.40049000       0.58724000       0.51619000
   127  C          0.09951000       0.08724000       0.98381000
   128  C          0.59951000       0.58724000       0.98381000
   129  C          0.18237900      -0.00334000       0.68356900
   130  C          0.68237900       0.49666000       0.68356900
   131  C          0.81762100      -0.00334000       0.81643100
   132  C          0.31762100       0.49666000       0.81643100
   133  C          0.81762100       0.00334000       0.31643100
   134  C          0.31762100       0.50334000       0.31643100
   135  C          0.18237900       0.00334000       0.18356900
   136  C          0.68237900       0.50334000       0.18356900
   137  C          0.15981000       0.78996000       0.66351000
   138  C          0.65981000       0.28996000       0.66351000
   139  C          0.84019000       0.78996000       0.83649000
   140  C          0.34019000       0.28996000       0.83649000
   141  C          0.84019000       0.21004000       0.33649000
   142  C          0.34019000       0.71004000       0.33649000
   143  C          0.15981000       0.21004000       0.16351000
   144  C          0.65981000       0.71004000       0.16351000
   145  C          0.13331000       0.65476000       0.69881000
   146  C          0.63331000       0.15476000       0.69881000
   147  C          0.86669000       0.65476000       0.80119000
   148  C          0.36669000       0.15476000       0.80119000
   149  C          0.86669000       0.34524000       0.30119000
   150  C          0.36669000       0.84524000       0.30119000
   151  C          0.13331000       0.34524000       0.19881000
   152  C          0.63331000       0.84524000       0.19881000
   153  C          0.12961000       0.72675000       0.75561000
   154  C          0.62961000       0.22675000       0.75561000
   155  C          0.87039000       0.72675000       0.74439000
   156  C          0.37039000       0.22675000       0.74439000
   157  C          0.87039000       0.27325000       0.24439000
   158  C          0.37039000       0.77325000       0.24439000
   159  C          0.12961000       0.27325000       0.25561000
   160  C          0.62961000       0.77325000       0.25561000
   161  C          0.15211000       0.92885000       0.77741000
   162  C          0.65211000       0.42885000       0.77741000
   163  C          0.84789000       0.92885000       0.72259000
   164  C          0.34789000       0.42885000       0.72259000
   165  C          0.84789000       0.07115000       0.22259000
   166  C          0.34789000       0.57115000       0.22259000
   167  C          0.15211000       0.07115000       0.27741000
   168  C          0.65211000       0.57115000       0.27741000
   169  C          0.17841000       0.06404000       0.74151000
   170  C          0.67841000       0.56404000       0.74151000
   171  C          0.82159000       0.06404000       0.75849000
   172  C          0.32159000       0.56404000       0.75849000
   173  C          0.82159000       0.93596000       0.25849000
   174  C          0.32159000       0.43596000       0.25849000
   175  C          0.17841000       0.93596000       0.24151000
   176  C          0.67841000       0.43596000       0.24151000
   177  H          0.12135900       0.37114000       0.56241000
   178  H          0.62135900       0.87114000       0.56241000
   179  H          0.87864100       0.37114000       0.93759000
   180  H          0.37864100       0.87114000       0.93759000
   181  H          0.87864100       0.62886000       0.43759000
   182  H          0.37864100       0.12886000       0.43759000
   183  H          0.12135900       0.62886000       0.06241000
   184  H          0.62135900       0.12886000       0.06241000
   185  H          0.10215900       0.16674000       0.59561000
   186  H          0.60215900       0.66674000       0.59561000
   187  H          0.89784100       0.16674000       0.90439000
   188  H          0.39784100       0.66674000       0.90439000
   189  H          0.89784100       0.83326000       0.40439000
   190  H          0.39784100       0.33326000       0.40439000
   191  H          0.10215900       0.83326000       0.09561000
   192  H          0.60215900       0.33326000       0.09561000
   193  H          0.20751000       0.29824000       0.65791000
   194  H          0.70751000       0.79824000       0.65791000
   195  H          0.79249000       0.29824000       0.84209000
   196  H          0.29249000       0.79824000       0.84209000
   197  H          0.79249000       0.70176000       0.34209000
   198  H          0.29249000       0.20176000       0.34209000
   199  H          0.20751000       0.70176000       0.15791000
   200  H          0.70751000       0.20176000       0.15791000
   201  H          0.25001000       0.10734000       0.64991000
   202  H          0.75001000       0.60734000       0.64991000
   203  H          0.74999000       0.10734000       0.85009000
   204  H          0.24999000       0.60734000       0.85009000
   205  H          0.74999000       0.89266000       0.35009000
   206  H          0.24999000       0.39266000       0.35009000
   207  H          0.25001000       0.89266000       0.14991000
   208  H          0.75001000       0.39266000       0.14991000
   209  H          0.03691000       0.39335000       0.48261000
   210  H          0.53691000       0.89335000       0.48261000
   211  H          0.96309000       0.39335000       0.01739000
   212  H          0.46309000       0.89335000       0.01739000
   213  H          0.96309000       0.60665000       0.51739000
   214  H          0.46309000       0.10665000       0.51739000
   215  H          0.03691000       0.60665000       0.98261000
   216  H          0.53691000       0.10665000       0.98261000
   217  H          0.98249000       0.25556000       0.39011000
   218  H          0.48249000       0.75556000       0.39011000
   219  H          0.01751000       0.25556000       0.10989000
   220  H          0.51751000       0.75556000       0.10989000
   221  H          0.01751000       0.74444000       0.60989000
   222  H          0.51751000       0.24444000       0.60989000
   223  H          0.98249000       0.74444000       0.89011000
   224  H          0.48249000       0.24444000       0.89011000
   225  H          0.07631000       0.69015000       0.41451000
   226  H          0.57631000       0.19015000       0.41451000
   227  H          0.92369000       0.69015000       0.08549000
   228  H          0.42369000       0.19015000       0.08549000
   229  H          0.92369000       0.30985000       0.58549000
   230  H          0.42369000       0.80985000       0.58549000
   231  H          0.07631000       0.30985000       0.91451000
   232  H          0.57631000       0.80985000       0.91451000
   233  H          0.12931000       0.82366000       0.50781000
   234  H          0.62931000       0.32366000       0.50781000
   235  H          0.87069000       0.82366000       0.99219000
   236  H          0.37069000       0.32366000       0.99219000
   237  H          0.87069000       0.17634000       0.49219000
   238  H          0.37069000       0.67634000       0.49219000
   239  H          0.12931000       0.17634000       0.00781000
   240  H          0.62931000       0.67634000       0.00781000
   241  H          0.16301000       0.74056000       0.62441000
   242  H          0.66301000       0.24056000       0.62441000
   243  H          0.83699000       0.74056000       0.87559000
   244  H          0.33699000       0.24056000       0.87559000
   245  H          0.83699000       0.25944000       0.37559000
   246  H          0.33699000       0.75944000       0.37559000
   247  H          0.16301000       0.25944000       0.12441000
   248  H          0.66301000       0.75944000       0.12441000
   249  H          0.11731000       0.51366000       0.68441000
   250  H          0.61731000       0.01366000       0.68441000
   251  H          0.88269000       0.51366000       0.81559000
   252  H          0.38269000       0.01366000       0.81559000
   253  H          0.88269000       0.48634000       0.31559000
   254  H          0.38269000      -0.01366000       0.31559000
   255  H          0.11731000       0.48634000       0.18441000
   256  H          0.61731000      -0.01366000       0.18441000
   257  H          0.15001000       0.97425000       0.81711000
   258  H          0.65001000       0.47425000       0.81711000
   259  H          0.84999000       0.97425000       0.68289000
   260  H          0.34999000       0.47425000       0.68289000
   261  H          0.84999000       0.02575000       0.18289000
   262  H          0.34999000       0.52575000       0.18289000
   263  H          0.15001000       0.02575000       0.31711000
   264  H          0.65001000       0.52575000       0.31711000
   265  H          0.19401000       0.20524000       0.75621000
   266  H          0.69401000       0.70524000       0.75621000
   267  H          0.80599000       0.20524000       0.74379000
   268  H          0.30599000       0.70524000       0.74379000
   269  H          0.80599000       0.79476000       0.24379000
   270  H          0.30599000       0.29476000       0.24379000
   271  H          0.19401000       0.79476000       0.25621000
   272  H          0.69401000       0.29476000       0.25621000
