data_KELFOX
_symmetry_space_group_name_H-M    'P1'
_symmetry_Int_Tables_number       1
loop_
_symmetry_equiv_pos_site_id
_symmetry_equiv_pos_as_xyz
1 x,y,z
_cell_length_a                   9.4412
_cell_length_b                   11.0842
_cell_length_c                   15.3033
_cell_angle_alpha                90.0
_cell_angle_beta                 104.3809
_cell_angle_gamma                90.0
loop_
_atom_site_label
_atom_site_type_symbol
_atom_site_fract_x
_atom_site_fract_y
_atom_site_fract_z
     1  Cl         0.19207800       0.52428700       0.64805500
     2  Cl         0.30792200       0.02428700       0.85194500
     3  Cl         0.80792200       0.47571300       0.35194500
     4  Cl         0.69207800       0.97571300       0.14805500
     5  Cl         0.29639100       0.36402900       0.10202600
     6  Cl         0.20360900       0.86402900       0.39797400
     7  Cl         0.70360900       0.63597100       0.89797400
     8  Cl         0.79639100       0.13597100       0.60202600
     9  N          0.95438000       0.03621000       0.91209000
    10  N          0.54562000       0.53621000       0.58791000
    11  N          0.04562000       0.96379000       0.08791000
    12  N          0.45438000       0.46379000       0.41209000
    13  N          0.89328000       0.22762000       0.94809000
    14  N          0.60672000       0.72762000       0.55191000
    15  N          0.10672000       0.77238000       0.05191000
    16  N          0.39328000       0.27238000       0.44809000
    17  N         -0.00392000       0.19482000       0.21241000
    18  N          0.50392000       0.69482000       0.28759000
    19  N          0.00392000       0.80518000       0.78759000
    20  N          0.49608000       0.30518000       0.71241000
    21  C          0.94628000       0.11592000       0.97669000
    22  C          0.55372000       0.61592000       0.52331000
    23  C          0.05372000       0.88408000       0.02331000
    24  C          0.44628000       0.38408000       0.47669000
    25  C         -0.00512000       0.07512000       0.06691000
    26  C          0.50512000       0.57512000       0.43309000
    27  C          0.00512000       0.92488000       0.93309000
    28  C          0.49488000       0.42488000       0.56691000
    29  C         -0.00612000       0.14522000       0.14651000
    30  C          0.50612000       0.64522000       0.35349000
    31  C          0.00612000       0.85478000       0.85349000
    32  C          0.49388000       0.35478000       0.64651000
    33  C          0.82728000       0.25142000       0.85199000
    34  C          0.67272000       0.75142000       0.64801000
    35  C          0.17272000       0.74858000       0.14801000
    36  C          0.32728000       0.24858000       0.35199000
    37  C          0.87727000       0.32652000       0.00772000
    38  C          0.62273000       0.82652000       0.49228000
    39  C          0.12273000       0.67348000      -0.00772000
    40  C          0.37727000       0.17348000       0.50772000
    41  C          0.92378000       0.32312000       0.80599000
    42  C          0.57622000       0.82312000       0.69401000
    43  C          0.07622000       0.67688000       0.19401000
    44  C          0.42378000       0.17688000       0.30599000
    45  C          0.05872000       0.28082000       0.80038000
    46  C          0.44128000       0.78082000       0.69962000
    47  C          0.94128000       0.71918000       0.19962000
    48  C          0.55872000       0.21918000       0.30038000
    49  C          0.14243000       0.34072000       0.75228000
    50  C          0.35757000       0.84072000       0.74772000
    51  C          0.85757000       0.65928000       0.24772000
    52  C          0.64243000       0.15928000       0.25228000
    53  C          0.09003000       0.44682000       0.70989000
    54  C          0.40997000       0.94682000       0.79011000
    55  C          0.90997000       0.55318000       0.29011000
    56  C          0.59003000       0.05318000       0.20989000
    57  C          0.95847000       0.49312000       0.71568000
    58  C          0.54153000      -0.00688000       0.78432000
    59  C          0.04153000       0.50688000       0.28432000
    60  C          0.45847000       0.00688000       0.21568000
    61  C          0.87537000       0.43082000       0.76358000
    62  C          0.62463000       0.93082000       0.73642000
    63  C          0.12463000       0.56918000       0.23642000
    64  C          0.37537000       0.06918000       0.26358000
    65  C          0.73138000       0.33102000       0.03211000
    66  C          0.76862000       0.83102000       0.46789000
    67  C          0.26862000       0.66898000       0.96789000
    68  C          0.23138000       0.16898000       0.53211000
    69  C          0.70277000       0.42562000       0.08412000
    70  C          0.79723000       0.92562000       0.41588000
    71  C          0.29723000       0.57438000       0.91588000
    72  C          0.20277000       0.07438000       0.58412000
    73  C          0.57057000       0.43643000       0.10642000
    74  C          0.92943000       0.93643000       0.39358000
    75  C          0.42943000       0.56357000       0.89358000
    76  C          0.07057000       0.06357000       0.60642000
    77  C          0.46487000       0.35123000       0.07572000
    78  C          0.03513000       0.85123000       0.42428000
    79  C          0.53513000       0.64877000       0.92428000
    80  C          0.96487000       0.14877000       0.57572000
    81  C          0.48947000       0.25613000       0.02422000
    82  C          0.01053000       0.75613000       0.47578000
    83  C          0.51053000       0.74387000       0.97578000
    84  C         -0.01053000       0.24387000       0.52422000
    85  C          0.62277000       0.24602000       0.00242000
    86  C          0.87723000       0.74602000       0.49758000
    87  C          0.37723000       0.75398000      -0.00242000
    88  C          0.12277000       0.25398000       0.50242000
    89  H          0.80648000       0.17592000       0.82199000
    90  H          0.69352000       0.67592000       0.67801000
    91  H          0.19352000       0.82408000       0.17801000
    92  H          0.30648000       0.32408000       0.32199000
    93  H          0.73878000       0.29462000       0.84689000
    94  H          0.76122000       0.79462000       0.65311000
    95  H          0.26122000       0.70538000       0.15311000
    96  H          0.23878000       0.20538000       0.34689000
    97  H          0.95227000       0.31902000       0.06192000
    98  H          0.54773000       0.81902000       0.43808000
    99  H          0.04773000       0.68098000       0.93808000
   100  H          0.45227000       0.18098000       0.56192000
   101  H          0.88927000       0.40022000       0.97868000
   102  H          0.61073000       0.90022000       0.52132000
   103  H          0.11073000       0.59978000       0.02132000
   104  H          0.38927000       0.09978000       0.47868000
   105  H          0.09452000       0.20812000       0.83088000
   106  H          0.40548000       0.70812000       0.66912000
   107  H          0.90548000       0.79188000       0.16912000
   108  H          0.59452000       0.29188000       0.33088000
   109  H          0.23443000       0.31002000       0.74818000
   110  H          0.26557000       0.81002000       0.75182000
   111  H          0.76557000       0.68998000       0.25182000
   112  H          0.73443000       0.18998000       0.24818000
   113  H          0.92467000       0.56722000       0.68668000
   114  H          0.57533000       0.06722000       0.81332000
   115  H          0.07533000       0.43278000       0.31332000
   116  H          0.42467000       0.93278000       0.18668000
   117  H          0.78357000       0.46212000       0.76748000
   118  H          0.71643000       0.96212000       0.73252000
   119  H          0.21643000       0.53788000       0.23252000
   120  H          0.28357000       0.03788000       0.26748000
   121  H          0.77647000       0.48492000       0.10412000
   122  H          0.72353000       0.98492000       0.39588000
   123  H          0.22353000       0.51508000       0.89588000
   124  H          0.27647000       0.01508000       0.60412000
   125  H          0.55277000       0.50103000       0.14312000
   126  H          0.94723000       0.00103000       0.35688000
   127  H          0.44723000       0.49897000       0.85688000
   128  H          0.05277000      -0.00103000       0.64312000
   129  H          0.41477000       0.19803000       0.00352000
   130  H          0.08523000       0.69803000       0.49648000
   131  H          0.58523000       0.80197000      -0.00352000
   132  H          0.91477000       0.30197000       0.50352000
   133  H          0.64107000       0.18002000       0.96708000
   134  H          0.85893000       0.68002000       0.53292000
   135  H          0.35893000       0.81998000       0.03292000
   136  H          0.14107000       0.31998000       0.46708000
