data_KELFOX03
_symmetry_space_group_name_H-M    'P1'
_symmetry_Int_Tables_number       1
loop_
_symmetry_equiv_pos_site_id
_symmetry_equiv_pos_as_xyz
1 x,y,z
_cell_length_a                   14.65545
_cell_length_b                   6.0071118
_cell_length_c                   17.99965
_cell_angle_alpha                90.0
_cell_angle_beta                 90.199414
_cell_angle_gamma                90.0
loop_
_atom_site_label
_atom_site_type_symbol
_atom_site_fract_x
_atom_site_fract_y
_atom_site_fract_z
     1  Cl         0.57728120       0.04944000       0.90963100
     2  Cl         0.92271880       0.54944000       0.59036900
     3  Cl         0.42271880       0.95056000       0.09036900
     4  Cl         0.07728120       0.45056000       0.40963100
     5  Cl         0.16440150       0.87796000       0.54608100
     6  Cl         0.33559850       0.37796000       0.95391900
     7  Cl         0.83559850       0.12204000       0.45391900
     8  Cl         0.66440150       0.62204000       0.04608100
     9  N          0.00663000       0.40457000       0.85103000
    10  N          0.49337000       0.90457000       0.64897000
    11  N         -0.00663000       0.59543000       0.14897000
    12  N          0.50663000       0.09543000       0.35103000
    13  N          0.95003000       0.62767000       0.94833000
    14  N          0.54997000       0.12767000       0.55167000
    15  N          0.04997000       0.37233000       0.05167000
    16  N          0.45003000       0.87233000       0.44833000
    17  N          0.12614000       0.96119000       0.93823000
    18  N          0.37386000       0.46119000       0.56177000
    19  N          0.87386000       0.03881000       0.06177000
    20  N          0.62614000       0.53881000       0.43823000
    21  C          0.00254000       0.45449000       0.92603000
    22  C          0.49746000       0.95449000       0.57397000
    23  C         -0.00254000       0.54551000       0.07397000
    24  C          0.50254000       0.04551000       0.42603000
    25  C          0.83854000       0.36629000       0.83203000
    26  C          0.66146000       0.86629000       0.66797000
    27  C          0.16146000       0.63371000       0.16797000
    28  C          0.33854000       0.13371000       0.33203000
    29  C          0.83865000       0.15471000       0.86473000
    30  C          0.66135000       0.65471000       0.63527000
    31  C          0.16135000       0.84529000       0.13527000
    32  C          0.33865000       0.34529000       0.36473000
    33  C          0.75585000       0.47431000       0.82283000
    34  C          0.74415000       0.97431000       0.67717000
    35  C          0.24415000       0.52569000       0.17717000
    36  C          0.25585000       0.02569000       0.32283000
    37  C          0.04984000       0.33099000       0.97963000
    38  C          0.45016000       0.83099000       0.52037000
    39  C          0.95016000       0.66901000       0.02037000
    40  C          0.54984000       0.16901000       0.47963000
    41  C          0.92724000       0.47399000       0.80643000
    42  C          0.57276000       0.97399000       0.69357000
    43  C          0.07276000       0.52601000       0.19357000
    44  C          0.42724000       0.02601000       0.30643000
    45  C          0.67515000       0.37711200       0.84613000
    46  C          0.82485000       0.87711200       0.65387000
    47  C          0.32485000       0.62288800       0.15387000
    48  C          0.17515000       0.12288800       0.34613000
    49  C          0.75815000       0.06161000       0.88813000
    50  C          0.74185000       0.56161000       0.61187000
    51  C          0.24185000       0.93839000       0.11187000
    52  C          0.25815000       0.43839000       0.38813000
    53  C          0.67655000       0.16831100       0.87963000
    54  C          0.82345000       0.66831100       0.62037000
    55  C          0.32345000       0.83168900       0.12037000
    56  C          0.17655000       0.33168900       0.37963000
    57  C          0.09624000       0.43991000       0.81623000
    58  C          0.40376000       0.93991000       0.68377000
    59  C          0.90376000       0.56009000       0.18377000
    60  C          0.59624000       0.06009000       0.31623000
    61  C          0.11224000       0.29631000       0.74813000
    62  C          0.38776000       0.79631000       0.75187000
    63  C          0.88776000       0.70369000       0.25187000
    64  C          0.61224000       0.20369000       0.24813000
    65  C          0.08925000       0.95829000       0.67804000
    66  C          0.41075000       0.45829000       0.82196000
    67  C          0.91075000       0.04171000       0.32196000
    68  C          0.58925000       0.54171000       0.17804000
    69  C          0.14305000       0.03961200       0.62324000
    70  C          0.35695000       0.53961200       0.87676000
    71  C          0.85695000       0.96038800       0.37676000
    72  C          0.64305000       0.46038800       0.12324000
    73  C          0.07224000       0.08571000       0.74043000
    74  C          0.42776000       0.58571000       0.75957000
    75  C          0.92776000       0.91429000       0.25957000
    76  C          0.57224000       0.41429000       0.24043000
    77  C          0.09664000       0.12851000       0.95613000
    78  C          0.40336000       0.62851000       0.54387000
    79  C          0.90336000       0.87149000       0.04387000
    80  C          0.59664000       0.37149000       0.45613000
    81  C          0.16715000       0.37321000       0.69124000
    82  C          0.33285000       0.87321000       0.80876000
    83  C          0.83285000       0.62679000       0.30876000
    84  C          0.66715000       0.12679000       0.19124000
    85  C          0.18335000       0.24081300       0.62924000
    86  C          0.31665000       0.74081300       0.87076000
    87  C          0.81665000       0.75918700       0.37076000
    88  C          0.68335000       0.25918700       0.12924000
    89  H          0.89310000       0.07740000       0.87060000
    90  H          0.60690000       0.57740000       0.62940000
    91  H          0.10690000       0.92260000       0.12940000
    92  H          0.39310000       0.42260000       0.37060000
    93  H          0.75440000       0.61420000       0.80080000
    94  H          0.74560000       0.11420000       0.69920000
    95  H          0.24560000       0.38580000       0.19920000
    96  H          0.25440000       0.88580000       0.30080000
    97  H          0.93770000       0.43510000       0.75480000
    98  H          0.56230000       0.93510000       0.74520000
    99  H          0.06230000       0.56490000       0.24520000
   100  H          0.43770000       0.06490000       0.25480000
   101  H          0.92100000       0.63440000       0.80930000
   102  H          0.57900000       0.13440000       0.69070000
   103  H          0.07900000       0.36560000       0.19070000
   104  H          0.42100000       0.86560000       0.30930000
   105  H          0.62000000       0.45140000       0.83940000
   106  H          0.88000000       0.95140000       0.66060000
   107  H          0.38000000       0.54860000       0.16060000
   108  H          0.12000000       0.04860000       0.33940000
   109  H          0.75920000       0.92190000       0.91040000
   110  H          0.74080000       0.42190000       0.58960000
   111  H          0.24080000       0.07810000       0.08960000
   112  H          0.25920000       0.57810000       0.41040000
   113  H          0.14360000       0.40880000       0.85250000
   114  H          0.35640000       0.90880000       0.64750000
   115  H          0.85640000       0.59120000       0.14750000
   116  H          0.64360000       0.09120000       0.35250000
   117  H          0.10150000       0.59520000       0.80210000
   118  H          0.39850000       0.09520000       0.69790000
   119  H          0.89850000       0.40480000       0.19790000
   120  H          0.60150000       0.90480000       0.30210000
   121  H          0.06380000       0.81700000       0.67360000
   122  H          0.43620000       0.31700000       0.82640000
   123  H          0.93620000       0.18300000       0.32640000
   124  H          0.56380000       0.68300000       0.17360000
   125  H          0.03410000       0.03130000       0.77740000
   126  H          0.46590000       0.53130000       0.72260000
   127  H          0.96590000       0.96870000       0.22260000
   128  H          0.53410000       0.46870000       0.27740000
   129  H          0.19330000       0.51390000       0.69450000
   130  H          0.30670000       0.01390000       0.80550000
   131  H          0.80670000       0.48610000       0.30550000
   132  H          0.69330000      -0.01390000       0.19450000
   133  H          0.22190000       0.29100000       0.59190000
   134  H          0.27810000       0.79100000       0.90810000
   135  H          0.77810000       0.70900000       0.40810000
   136  H          0.72190000       0.20900000       0.09190000
