data_KELFOX04
_symmetry_space_group_name_H-M    'P1'
_symmetry_Int_Tables_number       1
loop_
_symmetry_equiv_pos_site_id
_symmetry_equiv_pos_as_xyz
1 x,y,z
_cell_length_a                   4.7070916
_cell_length_b                   26.121312
_cell_length_c                   12.15285
_cell_angle_alpha                90.0
_cell_angle_beta                 93.2673
_cell_angle_gamma                90.0
loop_
_atom_site_label
_atom_site_type_symbol
_atom_site_fract_x
_atom_site_fract_y
_atom_site_fract_z
     1  Cl         0.33286130       0.75738300       0.29993600
     2  Cl         0.66713870       0.25738300       0.20006400
     3  Cl         0.66713870       0.24261700       0.70006400
     4  Cl         0.33286130       0.74261700       0.79993600
     5  Cl         0.32808170       0.60507400       0.13734600
     6  Cl         0.67191830       0.10507400       0.36265400
     7  Cl         0.67191830       0.39492600       0.86265400
     8  Cl         0.32808170       0.89492600       0.63734600
     9  N          0.38254000       0.54729800       0.47903170
    10  N          0.61746000       0.04729800       0.02096830
    11  N          0.61746000       0.45270200       0.52096830
    12  N          0.38254000       0.95270200       0.97903170
    13  N          0.87245000       0.53148900       0.28472000
    14  N          0.12755000       0.03148900       0.21528000
    15  N          0.12755000       0.46851100       0.71528000
    16  N          0.87245000       0.96851100       0.78472000
    17  N          0.67514000       0.58841800       0.60982180
    18  N          0.32486000       0.08841800       0.89017820
    19  N          0.32486000       0.41158200       0.39017820
    20  N          0.67514000       0.91158200       0.10982180
    21  C          0.29045000       0.50614100       0.42382000
    22  C          0.70955000       0.00614100       0.07618000
    23  C          0.70955000       0.49385900       0.57618000
    24  C          0.29045000       0.99385900       0.92382000
    25  C          0.59565000       0.54359900       0.55752000
    26  C          0.40435000       0.04359900       0.94248000
    27  C          0.40435000       0.45640100       0.44248000
    28  C          0.59565000       0.95640100       0.05752000
    29  C          0.05765000       0.51863900       0.34442000
    30  C          0.94235000       0.01863900       0.15558000
    31  C          0.94235000       0.48136100       0.65558000
    32  C          0.05765000       0.98136100       0.84442000
    33  C          0.54175000       0.63727900       0.57652000
    34  C          0.45825000       0.13727900       0.92348000
    35  C          0.45825000       0.36272100       0.42348000
    36  C          0.54175000       0.86272100       0.07652000
    37  H          0.49760000       0.65690000       0.64300000
    38  H          0.50240000       0.15690000       0.85700000
    39  H          0.50240000       0.34310000       0.35700000
    40  H          0.49760000       0.84310000       0.14300000
    41  H          0.36060000       0.63050000       0.53350000
    42  H          0.63940000       0.13050000       0.96650000
    43  H          0.63940000       0.36950000       0.46650000
    44  H          0.36060000       0.86950000       0.03350000
    45  C          0.73575000       0.66873900       0.50732000
    46  C          0.26425000       0.16873900      -0.00732000
    47  C          0.26425000       0.33126100       0.49268000
    48  C          0.73575000       0.83126100       0.00732000
    49  C          0.78185000       0.65337100       0.40002000
    50  C          0.21815000       0.15337100       0.09998000
    51  C          0.21815000       0.34662900       0.59998000
    52  C          0.78185000       0.84662900       0.90002000
    53  H          0.68610000       0.62400000       0.37030000
    54  H          0.31390000       0.12400000       0.12970000
    55  H          0.31390000       0.37600000       0.62970000
    56  H          0.68610000       0.87600000       0.87030000
    57  C          0.96455000       0.68014110       0.33612000
    58  C          0.03545000       0.18014110       0.16388000
    59  C          0.03545000       0.31985890       0.66388000
    60  C          0.96455000       0.81985890       0.83612000
    61  H         -0.00510000       0.66940000       0.26310000
    62  H          0.00510000       0.16940000       0.23690000
    63  H          0.00510000       0.33060000       0.73690000
    64  H         -0.00510000       0.83060000       0.76310000
    65  C          0.10325000       0.72310100       0.38042000
    66  C          0.89675000       0.22310100       0.11958000
    67  C          0.89675000       0.27689900       0.61958000
    68  C          0.10325000       0.77689900       0.88042000
    69  C          0.06286000       0.73929100       0.48642000
    70  C          0.93714000       0.23929100       0.01358000
    71  C          0.93714000       0.26070900       0.51358000
    72  C          0.06286000       0.76070900       0.98642000
    73  H          0.16010000       0.76850000       0.51600000
    74  H          0.83990000       0.26850000       0.98400000
    75  H          0.83990000       0.23150000       0.48400000
    76  H          0.16010000       0.73150000       0.01600000
    77  C          0.87565000       0.71179100       0.54922000
    78  C          0.12435000       0.21179100       0.95078000
    79  C          0.12435000       0.28820900       0.45078000
    80  C          0.87565000       0.78820900       0.04922000
    81  H          0.84360000       0.72280000       0.62200000
    82  H          0.15640000       0.22280000       0.87800000
    83  H          0.15640000       0.27720000       0.37800000
    84  H          0.84360000       0.77720000       0.12200000
    85  C          0.88525000       0.59285100       0.70352000
    86  C          0.11475000       0.09285100       0.79648000
    87  C          0.11475000       0.40714900       0.29648000
    88  C          0.88525000       0.90714900       0.20352000
    89  H          0.00030000       0.62410000       0.69450000
    90  H         -0.00030000       0.12410000       0.80550000
    91  H         -0.00030000       0.37590000       0.30550000
    92  H          0.00030000       0.87590000       0.19450000
    93  H          0.01520000       0.56310000       0.70370000
    94  H         -0.01520000       0.06310000       0.79630000
    95  H         -0.01520000       0.43690000       0.29630000
    96  H          0.01520000       0.93690000       0.20370000
    97  C          0.74735000       0.59528900       0.81282000
    98  C          0.25265000       0.09528900       0.68718000
    99  C          0.25265000       0.40471100       0.18718000
   100  C          0.74735000       0.90471100       0.31282000
   101  C          0.80066000       0.63628110       0.88402000
   102  C          0.19934000       0.13628110       0.61598000
   103  C          0.19934000       0.36371890       0.11598000
   104  C          0.80066000       0.86371890       0.38402000
   105  H          0.92570000       0.66270000       0.86350000
   106  H          0.07430000       0.16270000       0.63650000
   107  H          0.07430000       0.33730000       0.13650000
   108  H          0.92570000       0.83730000       0.36350000
   109  C          0.67486000       0.63934120       0.98412000
   110  C          0.32514000       0.13934120       0.51588000
   111  C          0.32514000       0.36065880       0.01588000
   112  C          0.67486000       0.86065880       0.48412000
   113  H          0.71560000       0.66720000       0.03260000
   114  H          0.28440000       0.16720000       0.46740000
   115  H          0.28440000       0.33280000       0.96740000
   116  H          0.71560000       0.83280000       0.53260000
   117  C          0.48916000       0.60118120       0.01232000
   118  C          0.51084000       0.10118120       0.48768000
   119  C          0.51084000       0.39881880       0.98768000
   120  C          0.48916000       0.89881880       0.51232000
   121  C          0.42796000       0.56033110       0.94272000
   122  C          0.57204000       0.06033110       0.55728000
   123  C          0.57204000       0.43966890       0.05728000
   124  C          0.42796000       0.93966890       0.44272000
   125  H          0.29760000       0.53460000       0.96260000
   126  H          0.70240000       0.03460000       0.53740000
   127  H          0.70240000       0.46540000       0.03740000
   128  H          0.29760000       0.96540000       0.46260000
   129  C          0.55805000       0.55719100       0.84392000
   130  C          0.44195000       0.05719100       0.65608000
   131  C          0.44195000       0.44280900       0.15608000
   132  C          0.55805000       0.94280900       0.34392000
   133  H          0.51870000       0.52890000       0.79640000
   134  H          0.48130000       0.02890000       0.70360000
   135  H          0.48130000       0.47110000       0.20360000
   136  H          0.51870000       0.97110000       0.29640000
