data_KELGEO01
_symmetry_space_group_name_H-M    'P1'
_symmetry_Int_Tables_number       1
loop_
_symmetry_equiv_pos_site_id
_symmetry_equiv_pos_as_xyz
1 x,y,z
_cell_length_a                   12.8312
_cell_length_b                   7.2411
_cell_length_c                   17.9901
_cell_angle_alpha                90.0
_cell_angle_beta                 108.5165
_cell_angle_gamma                90.0
loop_
_atom_site_label
_atom_site_type_symbol
_atom_site_fract_x
_atom_site_fract_y
_atom_site_fract_z
     1  Br         0.60138600       0.58488600       0.83419700
     2  Br         0.89861400       0.08488600       0.66580300
     3  Br         0.39861400       0.41511400       0.16580300
     4  Br         0.10138600       0.91511400       0.33419700
     5  Br         0.55997600       0.69956300       0.04860300
     6  Br         0.94002400       0.19956300       0.45139700
     7  Br         0.44002400       0.30043700       0.95139700
     8  Br         0.05997600       0.80043700       0.54860300
     9  N          0.95068000       0.14574000       0.95459000
    10  N          0.54932000       0.64574000       0.54541000
    11  N          0.04932000       0.85426000       0.04541000
    12  N          0.45068000       0.35426000       0.45459000
    13  N          0.77768000       0.07624000       0.95978000
    14  N          0.72232000       0.57624000       0.54022000
    15  N          0.22232000       0.92376000       0.04022000
    16  N          0.27768000       0.42376000       0.45978000
    17  N          0.85647000       0.63843000       0.09274000
    18  N          0.64353000       0.13843000       0.40726000
    19  N          0.14353000       0.36157000       0.90726000
    20  N          0.35647000       0.86157000       0.59274000
    21  C          0.88757000       0.03464000       0.98108000
    22  C          0.61243000       0.53464000       0.51892000
    23  C          0.11243000       0.96536000       0.01892000
    24  C          0.38757000       0.46536000       0.48108000
    25  C          0.94147000       0.88515000       0.02762000
    26  C          0.55853000       0.38515000       0.47238000
    27  C          0.05853000       0.11485000       0.97238000
    28  C          0.44147000       0.61485000       0.52762000
    29  C          0.88977000       0.74984000       0.06243000
    30  C          0.61023000       0.24984000       0.43757000
    31  C          0.11023000       0.25016000       0.93757000
    32  C          0.38977000       0.75016000       0.56243000
    33  C          0.73527000       0.24525000       0.91768000
    34  C          0.76473000       0.74525000       0.58232000
    35  C          0.26473000       0.75475000       0.08232000
    36  C          0.23527000       0.25475000       0.41768000
    37  C          0.69747000       0.96896000       0.98338000
    38  C          0.80253000       0.46896000       0.51662000
    39  C          0.30253000       0.03104000       0.01662000
    40  C          0.19747000       0.53104000       0.48338000
    41  C          0.67608000       0.21714000       0.83228000
    42  C          0.82392000       0.71714000       0.66772000
    43  C          0.32392000       0.78286000       0.16772000
    44  C          0.17608000       0.28286000       0.33228000
    45  C          0.61157000       0.35625000       0.78808000
    46  C          0.88843000       0.85625000       0.71192000
    47  C          0.38843000       0.64375000       0.21192000
    48  C          0.11157000       0.14375000       0.28808000
    49  C          0.55356000       0.33327000       0.71027000
    50  C          0.94644000       0.83327000       0.78973000
    51  C          0.44644000       0.66673000       0.28973000
    52  C          0.05356000       0.16673000       0.21027000
    53  C          0.55846000       0.16938000       0.67567000
    54  C          0.94154000       0.66938000       0.82433000
    55  C          0.44154000       0.83062000       0.32433000
    56  C          0.05846000       0.33062000       0.17567000
    57  C          0.62206000       0.02857000       0.71717000
    58  C          0.87794000       0.52857000       0.78283000
    59  C          0.37794000       0.97143000       0.28283000
    60  C          0.12206000       0.47143000       0.21717000
    61  C          0.68057000       0.05405000       0.79388000
    62  C          0.81943000       0.55405000       0.70612000
    63  C          0.31943000       0.94595000       0.20612000
    64  C          0.18057000       0.44595000       0.29388000
    65  C          0.68737000       0.02424000       0.06072000
    66  C          0.81263000       0.52424000       0.43928000
    67  C          0.31263000       0.97576000       0.93928000
    68  C          0.18737000       0.47576000       0.56072000
    69  C          0.62497000       0.92135000       0.09562000
    70  C          0.87503000       0.42135000       0.40438000
    71  C          0.37503000       0.07865000       0.90438000
    72  C          0.12497000       0.57865000       0.59562000
    73  C          0.60886000       0.97572000       0.16363000
    74  C          0.89114000       0.47572000       0.33637000
    75  C          0.39114000       0.02428000       0.83637000
    76  C          0.10886000       0.52428000       0.66363000
    77  C          0.65475000       0.13389000       0.19863000
    78  C          0.84525000       0.63389000       0.30137000
    79  C          0.34525000       0.86611000       0.80137000
    80  C          0.15475000       0.36611000       0.69863000
    81  C          0.71675000       0.24068000       0.16553000
    82  C          0.78325000       0.74068000       0.33447000
    83  C          0.28325000       0.75932000       0.83447000
    84  C          0.21675000       0.25932000       0.66553000
    85  C          0.73327000       0.18485000       0.09792000
    86  C          0.76673000       0.68485000       0.40208000
    87  C          0.26673000       0.81515000       0.90208000
    88  C          0.23327000       0.31515000       0.59792000
    89  H          0.68547000       0.29985000       0.94058000
    90  H          0.81453000       0.79985000       0.55942000
    91  H          0.31453000       0.70015000       0.05942000
    92  H          0.18547000       0.20015000       0.44058000
    93  H          0.79527000       0.32665000       0.92308000
    94  H          0.70473000       0.82665000       0.57692000
    95  H          0.20473000       0.67335000       0.07692000
    96  H          0.29527000       0.17335000       0.42308000
    97  H          0.62777000      -0.01664000       0.94458000
    98  H          0.87223000       0.48336000       0.55542000
    99  H          0.37223000       0.01664000       0.05542000
   100  H          0.12777000       0.51664000       0.44458000
   101  H          0.71877000       0.84286000       0.98638000
   102  H          0.78123000       0.34286000       0.51362000
   103  H          0.28123000       0.15714000       0.01362000
   104  H          0.21877000       0.65714000       0.48638000
   105  H          0.50986000       0.43107000       0.68137000
   106  H         -0.00986000       0.93107000       0.81863000
   107  H          0.49014000       0.56893000       0.31863000
   108  H          0.00986000       0.06893000       0.18137000
   109  H          0.51806000       0.15138000       0.62187000
   110  H          0.98194000       0.65138000       0.87813000
   111  H          0.48194000       0.84862000       0.37813000
   112  H          0.01806000       0.34862000       0.12187000
   113  H          0.62616000       0.91383000       0.69257000
   114  H          0.87384000       0.41383000       0.80743000
   115  H          0.37384000       0.08617000       0.30743000
   116  H          0.12616000       0.58617000       0.19257000
   117  H          0.72547000       0.95715000       0.82278000
   118  H          0.77453000       0.45715000       0.67722000
   119  H          0.27453000       0.04285000       0.17722000
   120  H          0.22547000       0.54285000       0.32278000
   121  H          0.56526000       0.90122000       0.18573000
   122  H          0.93474000       0.40122000       0.31427000
   123  H          0.43474000       0.09878000       0.81427000
   124  H          0.06526000       0.59878000       0.68573000
   125  H          0.64275000       0.17259000       0.24573000
   126  H          0.85725000       0.67259000       0.25427000
   127  H          0.35725000       0.82741000       0.75427000
   128  H          0.14275000       0.32741000       0.74573000
   129  H          0.74945000       0.35148000       0.19063000
   130  H          0.75055000       0.85148000       0.30937000
   131  H          0.25055000       0.64852000       0.80937000
   132  H          0.24945000       0.14852000       0.69063000
   133  H          0.77727000       0.25795000       0.07562000
   134  H          0.72273000       0.75795000       0.42438000
   135  H          0.22273000       0.74205000       0.92438000
   136  H          0.27727000       0.24205000       0.57562000
