data_KELGEO
_symmetry_space_group_name_H-M    'P1'
_symmetry_Int_Tables_number       1
loop_
_symmetry_equiv_pos_site_id
_symmetry_equiv_pos_as_xyz
1 x,y,z
_cell_length_a                   8.0133
_cell_length_b                   9.2044
_cell_length_c                   11.3285
_cell_angle_alpha                77.002
_cell_angle_beta                 87.332
_cell_angle_gamma                80.093
loop_
_atom_site_label
_atom_site_type_symbol
_atom_site_fract_x
_atom_site_fract_y
_atom_site_fract_z
     1  Br         0.73292000       0.86663000       0.93839000
     2  Br         0.26708000       0.13337000       0.06161000
     3  Br         0.14133900       0.82362900       0.31008700
     4  Br         0.85866100       0.17637100       0.68991300
     5  N          0.43856000       0.51975000       0.38643000
     6  N          0.56144000       0.48025000       0.61357000
     7  N          0.89939000       0.64087000       0.58865000
     8  N          0.10061000       0.35913000       0.41135000
     9  N          0.64787000       0.65205000       0.29414000
    10  N          0.35213000       0.34795000       0.70586000
    11  C          0.57687000       0.57705000       0.39724000
    12  C          0.42313000       0.42295000       0.60276000
    13  C          0.63687000       0.55315000       0.51834000
    14  C          0.36313000       0.44685000       0.48166000
    15  C          0.78488000       0.60557000       0.55165000
    16  C          0.21512000       0.39443000       0.44835000
    17  C          0.55947000       0.68347000       0.17725000
    18  C          0.44053000       0.31653000       0.82275000
    19  C          0.80377000       0.71046000       0.29105000
    20  C          0.19623000       0.28954000       0.70895000
    21  C          0.65579000       0.59469000       0.09105000
    22  C          0.34421000       0.40531000       0.90895000
    23  C          0.66310000       0.43910000       0.11718000
    24  C          0.33690000       0.56090000       0.88282000
    25  C          0.74620000       0.35220000       0.04210000
    26  C          0.25380000       0.64780000       0.95790000
    27  C          0.81520000       0.41630000       0.94180000
    28  C          0.18480000       0.58370000       0.05820000
    29  C          0.81520000       0.56330000       0.90690000
    30  C          0.18480000       0.43670000       0.09310000
    31  C          0.73510000       0.65720000       0.98414000
    32  C          0.26490000       0.34280000       0.01586000
    33  C          0.78147000       0.86806000       0.31964000
    34  C          0.21853000       0.13194000       0.68036000
    35  C          0.62510000       0.94807000       0.33806000
    36  C          0.37490000       0.05193000       0.66194000
    37  C          0.61210000       0.08909000       0.36528000
    38  C          0.38790000       0.91091000       0.63472000
    39  C          0.75010000       0.14937000       0.37637000
    40  C          0.24990000       0.85063000       0.62363000
    41  C          0.91010000       0.07148000       0.35867000
    42  C          0.08990000       0.92852000       0.64133000
    43  C          0.92348000       0.93177000       0.33015000
    44  C          0.07652000       0.06823000       0.66985000
    45  H          0.44807000       0.66017000       0.18945000
    46  H          0.55193000       0.33983000       0.81055000
    47  H          0.55357000       0.78817000       0.14225000
    48  H          0.44643000       0.21183000       0.85775000
    49  H          0.87817000       0.64146000       0.34855000
    50  H          0.12183000       0.35854000       0.65145000
    51  H          0.85207000       0.71656000       0.21225000
    52  H          0.14793000       0.28344000       0.78775000
    53  H          0.60510000       0.40110000       0.18958000
    54  H          0.39490000       0.59890000       0.81042000
    55  H          0.74320000       0.24720000       0.06810000
    56  H          0.25680000       0.75280000       0.93190000
    57  H          0.87520000       0.34530000       0.89880000
    58  H          0.12480000       0.65470000       0.10120000
    59  H          0.86520000       0.59930000       0.83090000
    60  H          0.13480000       0.40070000       0.16910000
    61  H          0.52610000       0.90837000       0.32826000
    62  H          0.47390000       0.09163000       0.67174000
    63  H          0.50310000       0.14139000       0.38068000
    64  H          0.49690000       0.85861000       0.61932000
    65  H          0.74210000       0.24677000       0.39357000
    66  H          0.25790000       0.75323000       0.60643000
    67  H          0.01310000       0.10598000       0.36647000
    68  H         -0.01310000       0.89402000       0.63353000
