data_KELGEO03
_symmetry_space_group_name_H-M    'P1'
_symmetry_Int_Tables_number       1
loop_
_symmetry_equiv_pos_site_id
_symmetry_equiv_pos_as_xyz
1 x,y,z
_cell_length_a                   7.62079
_cell_length_b                   10.2092
_cell_length_c                   11.1211
_cell_angle_alpha                79.851
_cell_angle_beta                 84.072
_cell_angle_gamma                71.511
loop_
_atom_site_label
_atom_site_type_symbol
_atom_site_fract_x
_atom_site_fract_y
_atom_site_fract_z
     1  Br         0.35071000       0.61850800       0.20954800
     2  Br         0.64929000       0.38149200       0.79045200
     3  Br         0.22662000      -0.00831000       0.31761000
     4  Br         0.77338000       0.00831000       0.68239000
     5  N          0.37716000       0.13245000       0.01005000
     6  N          0.62284000       0.86755000      -0.01005000
     7  N          0.95438000       0.85133000       0.17577000
     8  N          0.04562000       0.14867000       0.82423000
     9  N          0.54757000       0.15755000       0.16375000
    10  N          0.45243000       0.84245000       0.83625000
    11  C          0.52308000       0.07886000       0.08136000
    12  C          0.47692000       0.92114000       0.91864000
    13  C          0.64518000       0.94554000       0.06686000
    14  C          0.35482000       0.05446000       0.93314000
    15  C          0.81669000       0.89123000       0.13017000
    16  C          0.18331000       0.10877000       0.86983000
    17  C          0.48208000       0.30986000       0.13656000
    18  C          0.51792000       0.69014000       0.86344000
    19  C          0.58410000       0.09517000       0.29166000
    20  C          0.41590000       0.90483000       0.70834000
    21  C          0.63317000       0.37226000       0.15005000
    22  C          0.36683000       0.62774000       0.84995000
    23  C          0.81889000       0.29927000       0.12537000
    24  C          0.18111000       0.70073000       0.87463000
    25  C          0.95999000       0.35289000       0.13648000
    26  C          0.04001000       0.64711000       0.86352000
    27  C          0.92010000       0.48189000       0.17008000
    28  C          0.07990000       0.51811000       0.82992000
    29  C          0.73789000       0.55847000       0.19347000
    30  C          0.26211000       0.44153000       0.80653000
    31  C          0.59709000       0.50257000       0.18296000
    32  C          0.40291000       0.49743000       0.81704000
    33  C          0.42910000       0.15988000       0.37917000
    34  C          0.57090000       0.84012000       0.62083000
    35  C          0.44520000       0.26489000       0.44198000
    36  C          0.55480000       0.73511000       0.55802000
    37  C          0.31530000       0.33110000       0.51510000
    38  C          0.68470000       0.66890000       0.48490000
    39  C          0.14920000       0.30120000       0.52910000
    40  C          0.85080000       0.69880000       0.47090000
    41  C          0.12120000       0.19910000       0.47410000
    42  C          0.87880000       0.80090000       0.52590000
    43  C          0.26510000       0.12979000       0.39617000
    44  C          0.73490000       0.87021000       0.60383000
    45  H          0.44368000       0.33626000       0.05486000
    46  H          0.55632000       0.66374000       0.94514000
    47  H          0.38018000       0.34476000       0.19106000
    48  H          0.61982000       0.65524000       0.80894000
    49  H          0.60010000      -0.00227000       0.30036000
    50  H          0.39990000       0.00227000       0.69964000
    51  H          0.69510000       0.10867000       0.31166000
    52  H          0.30490000       0.89133000       0.68834000
    53  H          0.84739000       0.20997000       0.10087000
    54  H          0.15261000       0.79003000       0.89913000
    55  H          0.08489000       0.29959000       0.12088000
    56  H          0.91511000       0.70041000       0.87912000
    57  H          0.01810000       0.51909000       0.17558000
    58  H          0.98190000       0.48091000       0.82442000
    59  H          0.70899000       0.64807000       0.21747000
    60  H          0.29101000       0.35193000       0.78253000
    61  H          0.55820000       0.28739000       0.43068000
    62  H          0.44180000       0.71261000       0.56932000
    63  H          0.33130000       0.39910000       0.55710000
    64  H          0.66870000       0.60090000       0.44290000
    65  H          0.05120000       0.35220000       0.57910000
    66  H          0.94880000       0.64780000       0.42090000
    67  H          0.00920000       0.17510000       0.48810000
    68  H         -0.00920000       0.82490000       0.51190000
