data_KELGEO02
_symmetry_space_group_name_H-M    'P1'
_symmetry_Int_Tables_number       1
loop_
_symmetry_equiv_pos_site_id
_symmetry_equiv_pos_as_xyz
1 x,y,z
_cell_length_a                   8.554
_cell_length_b                   10.053
_cell_length_c                   10.937
_cell_angle_alpha                103.52
_cell_angle_beta                 107.33
_cell_angle_gamma                112.85
loop_
_atom_site_label
_atom_site_type_symbol
_atom_site_fract_x
_atom_site_fract_y
_atom_site_fract_z
     1  Br         0.91392000       0.63122000       0.52491000
     2  Br         0.08608000       0.36878000       0.47509000
     3  Br         0.35642000       0.10851000       0.85519000
     4  Br         0.64358000       0.89149000       0.14481000
     5  N          0.37310000       0.45498000       0.05348000
     6  N          0.62690000       0.54502000       0.94652000
     7  N          0.57010000       0.40509000       0.21258000
     8  N          0.42990000       0.59491000       0.78742000
     9  N         -0.02790000       0.52010000       0.16110000
    10  N          0.02790000       0.47990000       0.83890000
    11  C          0.53110000       0.45210000       0.10510000
    12  C          0.46890000       0.54790000       0.89490000
    13  C          0.65410000       0.49810000       0.04910000
    14  C          0.34590000       0.50190000       0.95090000
    15  C          0.83220000       0.50810000       0.11210000
    16  C          0.16780000       0.49190000       0.88790000
    17  C          0.49410000       0.43310000       0.30669000
    18  C          0.50590000       0.56690000       0.69331000
    19  C          0.58110000       0.26210000       0.18810000
    20  C          0.41890000       0.73790000       0.81190000
    21  C          0.56410000       0.60110000       0.37239000
    22  C          0.43590000       0.39890000       0.62761000
    23  C          0.44820000       0.66320000       0.34010000
    24  C          0.55180000       0.33680000       0.65990000
    25  C          0.51320000       0.81920000       0.39510000
    26  C          0.48680000       0.18080000       0.60490000
    27  C          0.69820000       0.92020000       0.48310000
    28  C          0.30180000       0.07980000       0.51690000
    29  C          0.81220000       0.86210000       0.52210000
    30  C          0.18780000       0.13790000       0.47790000
    31  C          0.74410000       0.70510000       0.46410000
    32  C          0.25590000       0.29490000       0.53590000
    33  C          0.39510000       0.11410000       0.12110000
    34  C          0.60490000       0.88590000       0.87890000
    35  C          0.33010000       0.05110000       0.20210000
    36  C          0.66990000       0.94890000       0.79790000
    37  C          0.16620000       0.91290000       0.14910000
    38  C          0.83380000       0.08710000       0.85090000
    39  C          0.06320000       0.83790000       0.00810000
    40  C          0.93680000       0.16210000      -0.00810000
    41  C          0.11820000       0.89690000       0.92390000
    42  C          0.88180000       0.10310000       0.07610000
    43  C          0.28410000       0.03610000       0.98090000
    44  C          0.71590000       0.96390000       0.01910000
    45  H          0.36110000       0.38010000       0.25859000
    46  H          0.63890000       0.61990000       0.74141000
    47  H          0.53010000       0.39610000       0.37639000
    48  H          0.46990000       0.60390000       0.62361000
    49  H          0.64010000       0.25610000       0.12610000
    50  H          0.35990000       0.74390000       0.87390000
    51  H          0.65610000       0.26710000       0.27410000
    52  H          0.34390000       0.73290000       0.72590000
    53  H          0.31920000       0.59520000       0.27610000
    54  H          0.68080000       0.40480000       0.72390000
    55  H          0.43120000       0.86120000       0.37310000
    56  H          0.56880000       0.13880000       0.62690000
    57  H          0.74620000       0.03120000       0.51810000
    58  H          0.25380000       0.96880000       0.48190000
    59  H          0.94020000       0.93110000       0.58810000
    60  H          0.05980000       0.06890000       0.41190000
    61  H          0.40110000       0.10510000       0.30010000
    62  H          0.59890000       0.89490000       0.69990000
    63  H          0.12920000       0.86990000       0.21010000
    64  H          0.87080000       0.13010000       0.78990000
    65  H          0.94780000       0.74190000       0.97090000
    66  H          0.05220000       0.25810000       0.02910000
    67  H          0.04620000       0.84690000       0.82490000
    68  H          0.95380000       0.15310000       0.17510000
