data_KELNIA01
_symmetry_space_group_name_H-M    'P1'
_symmetry_Int_Tables_number       1
loop_
_symmetry_equiv_pos_site_id
_symmetry_equiv_pos_as_xyz
1 x,y,z
_cell_length_a                   6.6224
_cell_length_b                   7.1374
_cell_length_c                   14.7779
_cell_angle_alpha                96.3396
_cell_angle_beta                 102.5736
_cell_angle_gamma                104.3976
loop_
_atom_site_label
_atom_site_type_symbol
_atom_site_fract_x
_atom_site_fract_y
_atom_site_fract_z
     1  H          0.49650000       0.61350000       0.34720000
     2  S         -0.01651110       0.62442100       0.50022600
     3  C          0.92933000       0.52556000       0.37873000
     4  H          0.05980000       0.56500000       0.35730000
     5  H          0.88380000       0.38320000       0.36970000
     6  C          0.23107000       0.56206000       0.54153000
     7  H          0.20070000       0.42050000       0.53630000
     8  H          0.32770000       0.60440000       0.50230000
     9  C          0.48431100       0.55689000       0.81804000
    10  H          0.53160000       0.52750000       0.88110000
    11  C          0.75442000       0.59797000       0.32133000
    12  H          0.80080000       0.74010000       0.32930000
    13  H          0.72760000       0.54520000       0.25510000
    14  C          0.34601200       0.70321100       0.81054000
    15  H          0.42550000       0.83640000       0.80920000
    16  H          0.25980000       0.70070000       0.85590000
    17  C          0.65799000       0.62218000       0.76974000
    18  H          0.73400000       0.52260000       0.76650000
    19  H          0.76020000       0.74190000       0.80730000
    20  C          0.22178000       0.58028000       0.71213000
    21  H          0.06630000       0.56560000       0.69520000
    22  C          0.57739000       0.65959000       0.67054000
    23  H          0.59940000       0.56050000       0.62620000
    24  H          0.66500000       0.78610000       0.66460000
    25  O          0.56594000       0.53825000       0.35083000
    26  O          0.04995000       0.84454000       0.50742000
    27  C          0.33888000       0.65777000       0.64224000
    28  H          0.33900000       0.79570000       0.64580000
    29  C          0.28868000       0.40089000       0.75133000
    30  C          0.12191300       0.30491700       0.80325000
    31  H         -0.01640000       0.25050000       0.75910000
    32  H          0.11200000       0.40230000       0.85110000
    33  H          0.16640000       0.20240000       0.83180000
    34  C          0.33141300       0.24278000       0.68814000
    35  H          0.40480000       0.16670000       0.72580000
    36  H          0.41960000       0.30200000       0.64950000
    37  H          0.19710000       0.15870000       0.64870000
    38  H          0.93780000       0.01170000       0.49140000
    39  S          0.42579110       0.01668110       0.32341600
    40  C          0.06827000      -0.01636000       0.18023000
    41  H          0.00370000       0.84940000       0.18840000
    42  C          0.19437000       0.09996000       0.27813000
    43  H          0.10100000       0.08450000       0.32070000
    44  H          0.24120000       0.23830000       0.27460000
    45  C          0.48027000       0.12886000       0.44473000
    46  H          0.52550000       0.27070000       0.45030000
    47  H          0.34990000       0.09310000       0.46630000
    48  C          0.65289000       0.06277000       0.50414000
    49  H          0.68160000       0.12430000       0.56930000
    50  H          0.60480000       0.92150000       0.50070000
    51  C          0.88104000       0.06546000       0.13793000
    52  H          0.79520000       0.09410000       0.18110000
    53  C          0.21337000       0.96914000       0.11193000
    54  H          0.34500000       0.07630000       0.13400000
    55  H          0.25270000       0.84720000       0.11380000
    56  C          0.93723000       0.22365000       0.07643000
    57  C          0.91002000       0.04847000      -0.00154000
    58  H          0.84650000       0.06470000       0.93450000
    59  C          0.75093000       0.92243000       0.04513000
    60  H          0.75940000       0.78850000       0.04440000
    61  H          0.60320000       0.92670000       0.02370000
    62  C          0.10799000       0.97622000       0.00863000
    63  H          0.21240000       0.06220000       0.98360000
    64  H          0.06870000       0.84580000       0.97150000
    65  O          0.84495000       0.11315000       0.47283000
    66  O          0.34005000       0.79906000       0.31952000
    67  C          0.75491000       0.31968000       0.05193000
    68  H          0.75620000       0.40710000       0.10640000
    69  H          0.61930000       0.21980000       0.03190000
    70  H          0.77490000       0.39220000       0.00210000
    71  C          0.15139000       0.38477000       0.10714000
    72  H          0.17250000       0.45170000       0.05560000
    73  H          0.26690000       0.32700000       0.12580000
    74  H          0.14910000       0.47650000       0.15920000
