data_KELNIA06
_symmetry_space_group_name_H-M    'P1'
_symmetry_Int_Tables_number       1
loop_
_symmetry_equiv_pos_site_id
_symmetry_equiv_pos_as_xyz
1 x,y,z
_cell_length_a                   6.4667
_cell_length_b                   28.383
_cell_length_c                   6.7097
_cell_angle_alpha                90.0
_cell_angle_beta                 95.75915
_cell_angle_gamma                90.0
loop_
_atom_site_label
_atom_site_type_symbol
_atom_site_fract_x
_atom_site_fract_y
_atom_site_fract_z
     1  C          0.07181200       0.05662000       0.00161200
     2  C          0.92818800       0.55662000      -0.00161200
     3  H          0.94680000       0.07550000       0.96590000
     4  H          0.05320000       0.57550000       0.03410000
     5  H          0.76700000       0.24760000       0.03300000
     6  H          0.23300000       0.74760000       0.96700000
     7  S          0.08883000       0.17061600       0.08213000
     8  S          0.91117000       0.67061600       0.91787000
     9  C          0.29061200       0.13113000       0.02521300
    10  C          0.70938800       0.63113000       0.97478700
    11  H          0.29170000       0.12820000       0.88120000
    12  H          0.70830000       0.62820000       0.11880000
    13  H          0.42480000       0.14300000       0.08060000
    14  H          0.57520000       0.64300000       0.91940000
    15  C          0.20001300       0.98937000       0.00351300
    16  C          0.79998700       0.48937000      -0.00351300
    17  H          0.17430000       0.95620000       0.96930000
    18  H          0.82570000       0.45620000       0.03070000
    19  C          0.16421200       0.22043000       0.94668800
    20  C          0.83578800       0.72043000       0.05331200
    21  H          0.31030000       0.22680000      -0.01640000
    22  H          0.68970000       0.72680000       0.01640000
    23  H          0.14590000       0.21350000       0.80440000
    24  H          0.85410000       0.71350000       0.19560000
    25  C          0.24921300       0.08283000       0.11661200
    26  C          0.75078700       0.58283000       0.88338800
    27  H          0.20630000       0.08890000       0.25020000
    28  H          0.79370000       0.58890000       0.74980000
    29  C          0.03661400       0.01163000       0.12531300
    30  C          0.96338600       0.51163000       0.87468700
    31  H          0.07930000       0.01450000       0.26750000
    32  H          0.92070000       0.51450000       0.73250000
    33  H          0.89870000      -0.00190000       0.10030000
    34  H          0.10130000       0.49810000       0.89970000
    35  C          0.29681400       0.03833000       0.69648700
    36  C          0.70318600       0.53833000       0.30351300
    37  H          0.42430000       0.04580000       0.77600000
    38  H          0.57570000       0.54580000       0.22400000
    39  H          0.24880000       0.06540000       0.61990000
    40  H          0.75120000       0.56540000       0.38010000
    41  H          0.32010000       0.01280000       0.60730000
    42  H          0.67990000       0.51280000       0.39270000
    43  C          0.44761300       0.05232000       0.14761400
    44  C          0.55238700       0.55232000       0.85238600
    45  H          0.50800000       0.05590000       0.28500000
    46  H          0.49200000       0.55590000       0.71500000
    47  H          0.54750000       0.06410000       0.06140000
    48  H          0.45250000       0.56410000       0.93860000
    49  C          0.03851300       0.26333000      -0.01191400
    50  C          0.96148700       0.76333000       0.01191400
    51  H          0.05760000       0.27010000       0.13050000
    52  H          0.94240000       0.77010000       0.86950000
    53  H          0.09010000       0.29000000       0.91800000
    54  H          0.90990000       0.79000000       0.08200000
    55  C          0.94348600       0.00733000       0.70078700
    56  C          0.05651400       0.50733000       0.29921300
    57  H          0.89450000       0.03220000       0.61120000
    58  H          0.10550000       0.53220000       0.38880000
    59  H          0.83660000      -0.00110000       0.78380000
    60  H          0.16340000       0.49890000       0.21620000
    61  H         -0.02150000       0.98030000       0.62460000
    62  H          0.02150000       0.48030000       0.37540000
    63  C          0.41261500      -0.00093000       0.10401400
    64  C          0.58738500       0.49907000       0.89598600
    65  H          0.51540000       0.98810000       0.01900000
    66  H          0.48460000       0.48810000      -0.01900000
    67  H          0.43200000       0.98170000       0.22890000
    68  H          0.56800000       0.48170000       0.77110000
    69  C          0.13511300       0.02392000       0.83208800
    70  C          0.86488700       0.52392000       0.16791200
    71  O          0.82461000       0.25772000       0.92841000
    72  O          0.17539000       0.75772000       0.07159000
    73  O          0.14158000       0.18378170       0.30018000
    74  O          0.85842000       0.68378170       0.69982000
    75  H          0.02314000       0.15530000       0.50390000
    76  H         -0.02314000       0.65530000       0.49610000
    77  S          0.69603000       0.22825600       0.43853000
    78  S          0.30397000       0.72825600       0.56147000
    79  C          0.63261200       0.17643000       0.57691300
    80  C          0.36738800       0.67643000       0.42308700
    81  H          0.65510000       0.18290000       0.71930000
    82  H          0.34490000       0.68290000       0.28070000
    83  H          0.48680000       0.16880000       0.54460000
    84  H          0.51320000       0.66880000       0.45540000
    85  C          0.45541200       0.30913000       0.39731200
    86  C          0.54458800       0.80913000       0.60268800
    87  H          0.41130000       0.29940000       0.25940000
    88  H          0.58870000       0.79940000       0.74060000
    89  C          0.34151200       0.37373000       0.63341100
    90  C          0.65848800       0.87373000       0.36658900
    91  C          0.27571100       0.33623000       0.46661100
    92  C          0.72428900       0.83623000       0.53338900
    93  H          0.15320000       0.31730000       0.48870000
    94  H          0.84680000       0.81730000       0.51130000
    95  C          0.76451300       0.13433000       0.52771400
    96  C          0.23548700       0.63433000       0.47228600
    97  H          0.71150000       0.10620000       0.58700000
    98  H          0.28850000       0.60620000       0.41300000
    99  H          0.75300000       0.12990000       0.38370000
   100  H          0.24700000       0.62990000       0.61630000
   101  C          0.65191200       0.33963000       0.38631200
   102  C          0.34808800       0.83963000       0.61368800
   103  H          0.71040000       0.33280000       0.26190000
   104  H          0.28960000       0.83280000       0.73810000
   105  H          0.75420000       0.33090000       0.49570000
   106  H          0.24580000       0.83090000       0.50430000
   107  C          0.50781400       0.36073000       0.80571200
   108  C          0.49218600       0.86073000       0.19428800
   109  H          0.63640000       0.35360000       0.75190000
   110  H          0.36360000       0.85360000       0.24810000
   111  H          0.46270000       0.33360000       0.87520000
   112  H          0.53730000       0.83360000       0.12480000
   113  H          0.52770000       0.38670000       0.89710000
   114  H          0.47230000       0.88670000       0.10290000
   115  C          0.23461300       0.37833000       0.32331300
   116  C          0.76538700       0.87833000       0.67668700
   117  H          0.09570000       0.39140000       0.32000000
   118  H          0.90430000       0.89140000       0.68000000
   119  H          0.27400000       0.37300000       0.18930000
   120  H          0.72600000       0.87300000       0.81070000
   121  C          0.39971300       0.40433000       0.46411100
   122  C          0.60028700       0.90433000       0.53588900
   123  H          0.37270000       0.43800000       0.48070000
   124  H          0.62730000       0.93800000       0.51930000
   125  C          0.49231200       0.26383000       0.51691200
   126  C          0.50768800       0.76383000       0.48308800
   127  H          0.36480000       0.24560000       0.50530000
   128  H          0.63520000       0.74560000       0.49470000
   129  H          0.52510000       0.27180000       0.65710000
   130  H          0.47490000       0.77180000       0.34290000
   131  C          0.15421300       0.39223000       0.72821200
   132  C          0.84578700       0.89223000       0.27178800
   133  H          0.19430000       0.41920000       0.80960000
   134  H          0.80570000       0.91920000       0.19040000
   135  H          0.10200000       0.36810000       0.81000000
   136  H          0.89800000       0.86810000       0.19000000
   137  H          0.04780000       0.40120000       0.62490000
   138  H          0.95220000       0.90120000       0.37510000
   139  C          0.61011300       0.39313000       0.39741200
   140  C          0.38988700       0.89313000       0.60258800
   141  H          0.71670000       0.40740000       0.49010000
   142  H          0.28330000       0.90740000       0.50990000
   143  H          0.61980000       0.40690000       0.26640000
   144  H          0.38020000       0.90690000       0.73360000
   145  O          0.63828000       0.21661190       0.22058000
   146  O          0.36172000       0.71661190       0.77942000
   147  O          0.97429000       0.14022000       0.59869000
   148  O          0.02571000       0.64022000       0.40131000
