data_KELNIA07
_symmetry_space_group_name_H-M    'P1'
_symmetry_Int_Tables_number       1
loop_
_symmetry_equiv_pos_site_id
_symmetry_equiv_pos_as_xyz
1 x,y,z
_cell_length_a                   6.4382
_cell_length_b                   6.7092
_cell_length_c                   14.3225
_cell_angle_alpha                87.4734
_cell_angle_beta                 80.9184
_cell_angle_gamma                85.1214
loop_
_atom_site_label
_atom_site_type_symbol
_atom_site_fract_x
_atom_site_fract_y
_atom_site_fract_z
     1  H          0.80387000       0.39012000       0.95650000
     2  S          0.07385150       0.30591160       0.10447800
     3  C          0.25699000       0.37999000       0.17744000
     4  H          0.39720000       0.37640000       0.14060000
     5  H          0.21690000       0.51650000       0.19660000
     6  C          0.06591000       0.41011000       0.91716000
     7  H          0.13720000       0.47420000       0.86050000
     8  H          0.07850000       0.26710000       0.90780000
     9  C          0.31918000       0.46868000       0.40014000
    10  C          0.42918000       0.15558000       0.40634000
    11  H          0.55760000       0.15070000       0.43400000
    12  H          0.39620000       0.02280000       0.39210000
    13  C          0.04168000       0.22158000       0.32453000
    14  H          0.94480000       0.33110000       0.30770000
    15  H         -0.01020000       0.09820000       0.30810000
    16  C          0.16261000       0.63839000       0.37784000
    17  H          0.04930000       0.58530000       0.35300000
    18  H          0.23200000       0.72880000       0.33170000
    19  H          0.10720000       0.70850000       0.43450000
    20  C          0.03849000       0.21869000       0.43264000
    21  H          0.91930000       0.30560000       0.46110000
    22  H          0.01820000       0.08390000       0.45780000
    23  C          0.26148000       0.24468000       0.26454000
    24  H          0.31570000       0.11120000       0.24240000
    25  C          0.41818000       0.31238000       0.32474000
    26  H          0.55510000       0.34280000       0.28910000
    27  C          0.49219000       0.55868000       0.44394000
    28  H          0.56470000       0.64870000       0.39870000
    29  H          0.59060000       0.45300000       0.46110000
    30  H          0.42910000       0.63000000       0.49920000
    31  C          0.23959000       0.28579000       0.46054000
    32  H          0.23910000       0.29380000       0.52870000
    33  C          0.17458000       0.45249000       0.00094000
    34  H          0.15080000       0.59360000       0.01450000
    35  H          0.32530000       0.42040000       0.98470000
    36  O          0.14286000       0.08966000       0.08003000
    37  O          0.84943000       0.47997000       0.93087000
    38  H          0.00511000       0.86910000       0.14450000
    39  S          0.72160150       0.95563150      -0.00758200
    40  C          0.54299000       0.90059000       0.91394000
    41  H          0.54460000       0.75690000       0.90810000
    42  H          0.40040000       0.95110000       0.93910000
    43  C          0.61119000       0.81301000       0.09424000
    44  H          0.46050000       0.84840000       0.10810000
    45  H          0.63240000       0.67160000       0.08090000
    46  C          0.80458000       0.88728000       0.76003000
    47  H          0.92040000       0.85100000       0.79590000
    48  C          0.71301000       0.85251000       0.17934000
    49  H          0.69710000      -0.00510000       0.19050000
    50  H          0.64060000       0.78470000       0.23470000
    51  C          0.61219000       0.00008000       0.81614000
    52  H          0.65370000       0.13290000       0.82740000
    53  C          0.42949000       0.03219000       0.75844000
    54  H          0.36700000       0.16820000       0.76620000
    55  H          0.32200000       0.94300000       0.78400000
    56  C          0.49429000      -0.00461000       0.65114000
    57  H          0.39200000       0.91590000       0.63030000
    58  H          0.49010000       0.12300000       0.61670000
    59  C          0.71138000       0.88978000       0.62674000
    60  H          0.75250000       0.85670000       0.56000000
    61  C          0.86739000       0.00909000       0.66774000
    62  H          0.82710000       0.15140000       0.67190000
    63  H          0.01340000      -0.01680000       0.63890000
    64  C          0.95129000       0.58499000       0.66224000
    65  H         -0.01520000       0.49170000       0.71140000
    66  H          0.06670000       0.66690000       0.64310000
    67  H          0.92690000       0.51290000       0.60900000
    68  C          0.57741000       0.58039000       0.73374000
    69  H          0.55350000       0.50170000       0.68260000
    70  H          0.45030000       0.66020000       0.75670000
    71  H          0.61760000       0.49310000       0.78390000
    72  C          0.75378000       0.71688000       0.69874000
    73  O          0.66106000       0.17096000       0.01873000
    74  O          0.92907000       0.78687000       0.16723000
