data_KEXYOC
_symmetry_space_group_name_H-M    'P1'
_symmetry_Int_Tables_number       1
loop_
_symmetry_equiv_pos_site_id
_symmetry_equiv_pos_as_xyz
1 x,y,z
_cell_length_a                   4.84432
_cell_length_b                   22.734416
_cell_length_c                   11.42168
_cell_angle_alpha                90.0
_cell_angle_beta                 97.6364
_cell_angle_gamma                90.0
loop_
_atom_site_label
_atom_site_type_symbol
_atom_site_fract_x
_atom_site_fract_y
_atom_site_fract_z
     1  N          0.27844000       0.78250800       0.40257160
     2  N          0.27844000       0.21749200       0.90257160
     3  N          0.77844000       0.28250800       0.40257160
     4  N          0.77844000       0.71749200       0.90257160
     5  C          0.30224000       0.73489100       0.33856190
     6  C          0.30224000       0.26510900       0.83856190
     7  C          0.80224000       0.23489100       0.33856190
     8  C          0.80224000       0.76510900       0.83856190
     9  Cl         0.55410900       0.68490200       0.39825500
    10  Cl         0.55410900       0.31509800       0.89825500
    11  Cl         0.05410900       0.18490200       0.39825500
    12  Cl         0.05410900       0.81509800       0.89825500
    13  C          0.13644000       0.72155900       0.23236190
    14  C          0.13644000       0.27844100       0.73236190
    15  C          0.63644000       0.22155900       0.23236190
    16  C          0.63644000       0.77844100       0.73236190
    17  C          0.92796000       0.76181900       0.19322000
    18  C          0.92796000       0.23818100       0.69322000
    19  C          0.42796000       0.26181900       0.19322000
    20  C          0.42796000       0.73818100       0.69322000
    21  C          0.89896000       0.81218900       0.25832000
    22  C          0.89896000       0.18781100       0.75832000
    23  C          0.39896000       0.31218900       0.25832000
    24  C          0.39896000       0.68781100       0.75832000
    25  C          0.07905000       0.82094100       0.36172000
    26  C          0.07905000       0.17905900       0.86172000
    27  C          0.57905000       0.32094100       0.36172000
    28  C          0.57905000       0.67905900       0.86172000
    29  C          0.18704000       0.66923100       0.16042000
    30  C          0.18704000       0.33076900       0.66042000
    31  C          0.68704000       0.16923100       0.16042000
    32  C          0.68704000       0.83076900       0.66042000
    33  O          0.41183000       0.65931700       0.12634160
    34  O          0.41183000       0.34068300       0.62634160
    35  O          0.91183000       0.15931700       0.12634160
    36  O          0.91183000       0.84068300       0.62634160
    37  N          0.96577000       0.63411700       0.13181170
    38  N          0.96577000       0.36588300       0.63181170
    39  N          0.46577000       0.13411700       0.13181170
    40  N          0.46577000       0.86588300       0.63181170
    41  N         -0.01423000       0.59205800       0.04340160
    42  N         -0.01423000       0.40794200       0.54340160
    43  N          0.48577000       0.09205800       0.04340160
    44  N          0.48577000       0.90794200       0.54340160
    45  N          0.23004000       0.49879800       0.91377820
    46  N          0.23004000       0.50120200       0.41377820
    47  N          0.73004000      -0.00120200       0.91377820
    48  N          0.73004000       0.00120200       0.41377820
    49  C          0.94616000       0.53349900       0.06802000
    50  C          0.94616000       0.46650100       0.56802000
    51  C          0.44616000       0.03349900       0.06802000
    52  C          0.44616000       0.96650100       0.56802000
    53  C          0.05044000       0.48754900       0.00326190
    54  C          0.05044000       0.51245100       0.50326190
    55  C          0.55044000       0.98754900       0.00326190
    56  C          0.55044000       0.01245100       0.50326190
    57  O          0.28953000       0.55016700       0.89124840
    58  O          0.28953000       0.44983300       0.39124840
    59  O          0.78953000       0.05016700       0.89124840
    60  O          0.78953000       0.94983300       0.39124840
    61  O          0.31973000       0.45690700       0.86224850
    62  O          0.31973000       0.54309300       0.36224850
    63  O          0.81973000       0.95690700       0.86224850
    64  O          0.81973000       0.04309300       0.36224850
    65  C         -0.01024000       0.42893100       0.02392000
    66  C         -0.01024000       0.57106900       0.52392000
    67  C          0.48976000       0.92893100       0.02392000
    68  C          0.48976000       0.07106900       0.52392000
    69  C          0.82776000       0.41480100       0.10962000
    70  C          0.82776000       0.58519900       0.60962000
    71  C          0.32776000       0.91480100       0.10962000
    72  C          0.32776000       0.08519900       0.60962000
    73  C          0.72336000       0.45942100       0.17512000
    74  C          0.72336000       0.54057900       0.67512000
    75  C          0.22336000       0.95942100       0.17512000
    76  C          0.22336000       0.04057900       0.67512000
    77  C          0.78106000       0.51746100       0.15512000
    78  C          0.78106000       0.48253900       0.65512000
    79  C          0.28106000       0.01746100       0.15512000
    80  C          0.28106000       0.98253900       0.65512000
    81  H          0.80660000       0.75470000       0.12220000
    82  H          0.80660000       0.24530000       0.62220000
    83  H          0.30660000       0.25470000       0.12220000
    84  H          0.30660000       0.74530000       0.62220000
    85  H          0.75840000       0.84020000       0.23270000
    86  H          0.75840000       0.15980000       0.73270000
    87  H          0.25840000       0.34020000       0.23270000
    88  H          0.25840000       0.65980000       0.73270000
    89  H          0.06010000       0.85580000       0.40560000
    90  H          0.06010000       0.14420000       0.90560000
    91  H          0.56010000       0.35580000       0.40560000
    92  H          0.56010000       0.64420000       0.90560000
    93  H          0.80130000       0.64650000       0.13550000
    94  H          0.80130000       0.35350000       0.63550000
    95  H          0.30130000       0.14650000       0.13550000
    96  H          0.30130000       0.85350000       0.63550000
    97  H          0.10950000       0.59770000       0.00100000
    98  H          0.10950000       0.40230000       0.50100000
    99  H          0.60950000       0.09770000       0.00100000
   100  H          0.60950000       0.90230000       0.50100000
   101  H          0.06050000       0.39870000       0.97860000
   102  H          0.06050000       0.60130000       0.47860000
   103  H          0.56050000       0.89870000       0.97860000
   104  H          0.56050000       0.10130000       0.47860000
   105  H          0.78690000       0.37480000       0.12420000
   106  H          0.78690000       0.62520000       0.62420000
   107  H          0.28690000       0.87480000       0.12420000
   108  H          0.28690000       0.12520000       0.62420000
   109  H          0.61110000       0.44960000       0.23440000
   110  H          0.61110000       0.55040000       0.73440000
   111  H          0.11110000       0.94960000       0.23440000
   112  H          0.11110000       0.05040000       0.73440000
   113  H          0.70830000       0.54720000       0.20080000
   114  H          0.70830000       0.45280000       0.70080000
   115  H          0.20830000       0.04720000       0.20080000
   116  H          0.20830000       0.95280000       0.70080000
