data_KEXYOC01
_symmetry_space_group_name_H-M    'P1'
_symmetry_Int_Tables_number       1
loop_
_symmetry_equiv_pos_site_id
_symmetry_equiv_pos_as_xyz
1 x,y,z
_cell_length_a                   6.15159
_cell_length_b                   4.78755
_cell_length_c                   20.7483
_cell_angle_alpha                90.0
_cell_angle_beta                 97.5407
_cell_angle_gamma                90.0
loop_
_atom_site_label
_atom_site_type_symbol
_atom_site_fract_x
_atom_site_fract_y
_atom_site_fract_z
     1  N          0.79719000       0.50851000       0.44163000
     2  N          0.20281000       0.00851000       0.55837000
     3  C          0.61671000       0.44211200       0.40143000
     4  C          0.38329000       0.94211200       0.59857000
     5  Cl         0.44693000       0.20823000       0.43361700
     6  Cl         0.55307000       0.70823000       0.56638300
     7  C          0.56201000       0.55631200       0.33963000
     8  C          0.43799000       0.05631200       0.66037000
     9  C          0.70401000       0.75991100       0.32063000
    10  C          0.29599000       0.25991100       0.67937000
    11  C          0.89001100       0.83471400       0.36204000
    12  C          0.10998900       0.33471400       0.63796000
    13  C          0.92811000       0.70091800       0.42153000
    14  C          0.07189000       0.20091800       0.57847000
    15  C          0.36351100       0.46491300       0.29493000
    16  C          0.63648900       0.96491300       0.70507000
    17  O          0.29106000       0.22929000       0.29115190
    18  O          0.70894000       0.72929000       0.70884810
    19  N          0.26827000       0.67451100       0.25742000
    20  N          0.73173000       0.17451100       0.74258000
    21  N          0.06568000       0.61199000       0.22183000
    22  N          0.93432000       0.11199000       0.77817000
    23  C         -0.00189000       0.73511400       0.16403000
    24  C          0.00189000       0.23511400       0.83597000
    25  C          0.79321000       0.67611400       0.12773000
    26  C          0.20679000       0.17611400       0.87227000
    27  N          0.65161000       0.46281100       0.14783000
    28  N          0.34839000       0.96281100       0.85217000
    29  O          0.71133000       0.31588000       0.19622000
    30  O          0.28867000       0.81588000       0.80378000
    31  O          0.46293000       0.43449000       0.11593000
    32  O          0.53707000       0.93449000       0.88407000
    33  C          0.71698900       0.81971200       0.07053000
    34  C          0.28301100       0.31971200       0.92947000
    35  C          0.84458900       0.02441300       0.04763000
    36  C          0.15541100       0.52441300       0.95237000
    37  C          0.04771000       0.08161300       0.08253000
    38  C          0.95229000       0.58161300       0.91747000
    39  C          0.12641100       0.94591200       0.13893000
    40  C          0.87358900       0.44591200       0.86107000
    41  H          0.67270000       0.84700000       0.27930000
    42  H          0.32730000       0.34700000       0.72070000
    43  H         -0.01200000      -0.02720000       0.35000000
    44  H          0.01200000       0.47280000       0.65000000
    45  H          0.05650000       0.75000000       0.44990000
    46  H          0.94350000       0.25000000       0.55010000
    47  H          0.30550000       0.84440000       0.27080000
    48  H          0.69450000       0.34440000       0.72920000
    49  H          0.01010000       0.45090000       0.23200000
    50  H         -0.01010000       0.95090000       0.76800000
    51  H          0.57720000       0.77620000       0.04750000
    52  H          0.42280000       0.27620000       0.95250000
    53  H          0.79470000       0.12360000       0.00880000
    54  H          0.20530000       0.62360000       0.99120000
    55  H          0.13630000       0.22170000       0.06670000
    56  H          0.86370000       0.72170000       0.93330000
    57  H          0.26660000      -0.00750000       0.16110000
    58  H          0.73340000       0.49250000       0.83890000
