data_KEXYOC02
_symmetry_space_group_name_H-M    'P1'
_symmetry_Int_Tables_number       1
loop_
_symmetry_equiv_pos_site_id
_symmetry_equiv_pos_as_xyz
1 x,y,z
_cell_length_a                   22.27273
_cell_length_b                   8.22074
_cell_length_c                   13.59167
_cell_angle_alpha                90.0
_cell_angle_beta                 90.0
_cell_angle_gamma                90.0
loop_
_atom_site_label
_atom_site_type_symbol
_atom_site_fract_x
_atom_site_fract_y
_atom_site_fract_z
     1  N          0.80272500       0.38783150       0.66617900
     2  N          0.69727500       0.11216850       0.16617900
     3  N          0.30272500       0.11216850       0.33382100
     4  N          0.19727500       0.38783150       0.83382100
     5  N          0.19727500       0.61216850       0.33382100
     6  N          0.30272500       0.88783150       0.83382100
     7  N          0.69727500       0.88783150       0.66617900
     8  N          0.80272500       0.61216850       0.16617900
     9  C          0.74372600       0.37565170       0.65596100
    10  C          0.75627400       0.12434830       0.15596100
    11  C          0.24372600       0.12434830       0.34403900
    12  C          0.25627400       0.37565170       0.84403900
    13  C          0.25627400       0.62434830       0.34403900
    14  C          0.24372600       0.87565170       0.84403900
    15  C          0.75627400       0.87565170       0.65596100
    16  C          0.74372600       0.62434830       0.15596100
    17  Cl         0.71390416       0.48342500       0.55676300
    18  Cl         0.78609584       0.01657500       0.05676300
    19  Cl         0.21390416       0.01657500       0.44323700
    20  Cl         0.28609584       0.48342500       0.94323700
    21  Cl         0.28609584       0.51657500       0.44323700
    22  Cl         0.21390416      -0.01657500       0.94323700
    23  Cl         0.78609584      -0.01657500       0.55676300
    24  Cl         0.71390416       0.51657500       0.05676300
    25  C          0.70591600       0.29154170       0.71880110
    26  C          0.79408400       0.20845830       0.21880110
    27  C          0.20591600       0.20845830       0.28119890
    28  C          0.29408400       0.29154170       0.78119890
    29  C          0.29408400       0.70845830       0.28119890
    30  C          0.20591600       0.79154170       0.78119890
    31  C          0.79408400       0.79154170       0.71880110
    32  C          0.70591600       0.70845830       0.21880110
    33  C          0.73251600       0.21601190       0.79930110
    34  C          0.76748400       0.28398810       0.29930110
    35  C          0.23251600       0.28398810       0.20069890
    36  C          0.26748400       0.21601190       0.70069890
    37  C          0.26748400       0.78398810       0.20069890
    38  C          0.23251600       0.71601190       0.70069890
    39  C          0.76748400       0.71601190       0.79930110
    40  C          0.73251600       0.78398810       0.29930110
    41  C          0.79418600       0.22592000       0.81129120
    42  C          0.70581400       0.27408000       0.31129120
    43  C          0.29418600       0.27408000       0.18870880
    44  C          0.20581400       0.22592000       0.68870880
    45  C          0.20581400       0.77408000       0.18870880
    46  C          0.29418600       0.72592000       0.68870880
    47  C          0.70581400       0.72592000       0.81129120
    48  C          0.79418600       0.77408000       0.31129120
    49  C          0.82726600       0.31226190       0.74358120
    50  C          0.67273400       0.18773810       0.24358120
    51  C          0.32726600       0.18773810       0.25641880
    52  C          0.17273400       0.31226190       0.75641880
    53  C          0.17273400       0.68773810       0.25641880
    54  C          0.32726600       0.81226190       0.75641880
    55  C          0.67273400       0.81226190       0.74358120
    56  C          0.82726600       0.68773810       0.24358120
    57  C          0.63862600       0.28669160       0.70592100
    58  C          0.86137400       0.21330840       0.20592100
    59  C          0.13862600       0.21330840       0.29407900
    60  C          0.36137400       0.28669160       0.79407900
    61  C          0.36137400       0.71330840       0.29407900
    62  C          0.13862600       0.78669160       0.79407900
    63  C          0.86137400       0.78669160       0.70592100
    64  C          0.63862600       0.71330840       0.20592100
    65  O          0.60533400       0.37305130       0.75354800
    66  O          0.89466600       0.12694870       0.25354800
    67  O          0.10533400       0.12694870       0.24645200
    68  O          0.39466600       0.37305130       0.74645200
    69  O          0.39466600       0.62694870       0.24645200
    70  O          0.10533400       0.87305130       0.74645200
    71  O          0.89466600       0.87305130       0.75354800
    72  O          0.60533400       0.62694870       0.25354800
    73  N          0.62039500       0.17781150       0.63717900
    74  N          0.87960500       0.32218850       0.13717900
    75  N          0.12039500       0.32218850       0.36282100
    76  N          0.37960500       0.17781150       0.86282100
    77  N          0.37960500       0.82218850       0.36282100
    78  N          0.12039500       0.67781150       0.86282100
    79  N          0.87960500       0.67781150       0.63717900
    80  N          0.62039500       0.82218850       0.13717900
    81  N          0.55952500       0.14556150       0.62481900
    82  N          0.94047500       0.35443850       0.12481900
    83  N          0.05952500       0.35443850       0.37518100
    84  N          0.44047500       0.14556150       0.87518100
    85  N          0.44047500       0.85443850       0.37518100
    86  N          0.05952500       0.64556150       0.87518100
    87  N          0.94047500       0.64556150       0.62481900
    88  N          0.55952500       0.85443850       0.12481900
    89  C          0.52879600       0.21331160       0.54825100
    90  C          0.97120400       0.28668840       0.04825100
    91  C          0.02879600       0.28668840       0.45174900
    92  C          0.47120400       0.21331160       0.95174900
    93  C          0.47120400       0.78668840       0.45174900
    94  C          0.02879600       0.71331160       0.95174900
    95  C          0.97120400       0.71331160       0.54825100
    96  C          0.52879600       0.78668840       0.04825100
    97  C          0.46704600       0.18435160       0.53087100
    98  C          0.03295400       0.31564840       0.03087100
    99  C          0.96704600       0.31564840       0.46912900
   100  C          0.53295400       0.18435160       0.96912900
   101  C          0.53295400       0.81564840       0.46912900
   102  C          0.96704600       0.68435160       0.96912900
   103  C          0.03295400       0.68435160       0.53087100
   104  C          0.46704600       0.81564840       0.03087100
   105  N          0.43182500       0.08245140       0.59476900
   106  N          0.06817500       0.41754860       0.09476900
   107  N          0.93182500       0.41754860       0.40523100
   108  N          0.56817500       0.08245140       0.90523100
   109  N          0.56817500       0.91754860       0.40523100
   110  N          0.93182500       0.58245140       0.90523100
   111  N          0.06817500       0.58245140       0.59476900
   112  N          0.43182500       0.91754860       0.09476900
   113  O          0.45496400       0.02609120       0.67074700
   114  O          0.04503600       0.47390880       0.17074700
   115  O          0.95496400       0.47390880       0.32925300
   116  O          0.54503600       0.02609120       0.82925300
   117  O          0.54503600       0.97390880       0.32925300
   118  O          0.95496400       0.52609120       0.82925300
   119  O          0.04503600       0.52609120       0.67074700
   120  O          0.45496400       0.97390880       0.17074700
   121  O          0.37937400       0.05117130       0.57201800
   122  O          0.12062600       0.44882870       0.07201800
   123  O          0.87937400       0.44882870       0.42798200
   124  O          0.62062600       0.05117130       0.92798200
   125  O          0.62062600       0.94882870       0.42798200
   126  O          0.87937400       0.55117130       0.92798200
   127  O          0.12062600       0.55117130       0.57201800
   128  O          0.37937400       0.94882870       0.07201800
   129  C          0.43738600       0.25223170       0.44986100
   130  C          0.06261400       0.24776830       0.94986100
   131  C          0.93738600       0.24776830       0.55013900
   132  C          0.56261400       0.25223170       0.05013900
   133  C          0.56261400       0.74776830       0.55013900
   134  C          0.93738600       0.75223170       0.05013900
   135  C          0.06261400       0.75223170       0.44986100
   136  C          0.43738600       0.74776830       0.94986100
   137  C          0.46759700       0.34882180       0.38483110
   138  C          0.03240300       0.15117820       0.88483110
   139  C          0.96759700       0.15117820       0.61516890
   140  C          0.53240300       0.34882180       0.11516890
   141  C          0.53240300       0.65117820       0.61516890
   142  C          0.96759700       0.84882180       0.11516890
   143  C          0.03240300       0.84882180       0.38483110
   144  C          0.46759700       0.65117820       0.88483110
   145  C          0.52872700       0.37855170       0.40027110
   146  C          0.97127300       0.12144830       0.90027110
   147  C          0.02872700       0.12144830       0.59972890
   148  C          0.47127300       0.37855170       0.09972890
   149  C          0.47127300       0.62144830       0.59972890
   150  C          0.02872700       0.87855170       0.09972890
   151  C          0.97127300       0.87855170       0.40027110
   152  C          0.52872700       0.62144830       0.90027110
   153  C          0.55837600       0.31299170       0.47909110
   154  C          0.94162400       0.18700830       0.97909110
   155  C          0.05837600       0.18700830       0.52090890
   156  C          0.44162400       0.31299170       0.02090890
   157  C          0.44162400       0.68700830       0.52090890
   158  C          0.05837600       0.81299170       0.02090890
   159  C          0.94162400       0.81299170       0.47909110
   160  C          0.55837600       0.68700830       0.97909110
   161  H          0.70870000       0.15830000       0.84560000
   162  H          0.79130000       0.34170000       0.34560000
   163  H          0.20870000       0.34170000       0.15440000
   164  H          0.29130000       0.15830000       0.65440000
   165  H          0.29130000       0.84170000       0.15440000
   166  H          0.20870000       0.65830000       0.65440000
   167  H          0.79130000       0.65830000       0.84560000
   168  H          0.70870000       0.84170000       0.34560000
   169  H          0.81330000       0.17390000       0.86530000
   170  H          0.68670000       0.32610000       0.36530000
   171  H          0.31330000       0.32610000       0.13470000
   172  H          0.18670000       0.17390000       0.63470000
   173  H          0.18670000       0.82610000       0.13470000
   174  H          0.31330000       0.67390000       0.63470000
   175  H          0.68670000       0.67390000       0.86530000
   176  H          0.81330000       0.82610000       0.36530000
   177  H          0.86950000       0.31850000       0.75220000
   178  H          0.63050000       0.18150000       0.25220000
   179  H          0.36950000       0.18150000       0.24780000
   180  H          0.13050000       0.31850000       0.74780000
   181  H          0.13050000       0.68150000       0.24780000
   182  H          0.36950000       0.81850000       0.74780000
   183  H          0.63050000       0.81850000       0.75220000
   184  H          0.86950000       0.68150000       0.25220000
   185  H          0.64380000       0.09660000       0.61980000
   186  H          0.85620000       0.40340000       0.11980000
   187  H          0.14380000       0.40340000       0.38020000
   188  H          0.35620000       0.09660000       0.88020000
   189  H          0.35620000       0.90340000       0.38020000
   190  H          0.14380000       0.59660000       0.88020000
   191  H          0.85620000       0.59660000       0.61980000
   192  H          0.64380000       0.90340000       0.11980000
   193  H          0.54260000       0.09790000       0.67560000
   194  H          0.95740000       0.40210000       0.17560000
   195  H          0.04260000       0.40210000       0.32440000
   196  H          0.45740000       0.09790000       0.82440000
   197  H          0.45740000       0.90210000       0.32440000
   198  H          0.04260000       0.59790000       0.82440000
   199  H          0.95740000       0.59790000       0.67560000
   200  H          0.54260000       0.90210000       0.17560000
   201  H          0.39590000       0.23090000       0.44010000
   202  H          0.10410000       0.26910000       0.94010000
   203  H          0.89590000       0.26910000       0.55990000
   204  H          0.60410000       0.23090000       0.05990000
   205  H          0.60410000       0.76910000       0.55990000
   206  H          0.89590000       0.73090000       0.05990000
   207  H          0.10410000       0.73090000       0.44010000
   208  H          0.39590000       0.76910000       0.94010000
   209  H          0.44740000       0.39510000       0.33000000
   210  H          0.05260000       0.10490000       0.83000000
   211  H          0.94740000       0.10490000       0.67000000
   212  H          0.55260000       0.39510000       0.17000000
   213  H          0.55260000       0.60490000       0.67000000
   214  H          0.94740000       0.89510000       0.17000000
   215  H          0.05260000       0.89510000       0.33000000
   216  H          0.44740000       0.60490000       0.83000000
   217  H          0.55000000       0.44550000       0.35520000
   218  H          0.95000000       0.05450000       0.85520000
   219  H          0.05000000       0.05450000       0.64480000
   220  H          0.45000000       0.44550000       0.14480000
   221  H          0.45000000       0.55450000       0.64480000
   222  H          0.05000000       0.94550000       0.14480000
   223  H          0.95000000       0.94550000       0.35520000
   224  H          0.55000000       0.55450000       0.85520000
   225  H          0.59990000       0.33520000       0.48740000
   226  H          0.90010000       0.16480000       0.98740000
   227  H          0.09990000       0.16480000       0.51260000
   228  H          0.40010000       0.33520000       0.01260000
   229  H          0.40010000       0.66480000       0.51260000
   230  H          0.09990000       0.83520000       0.01260000
   231  H          0.90010000       0.83520000       0.48740000
   232  H          0.59990000       0.66480000       0.98740000
