data_KIDJUD02
_symmetry_space_group_name_H-M    'P1'
_symmetry_Int_Tables_number       1
loop_
_symmetry_equiv_pos_site_id
_symmetry_equiv_pos_as_xyz
1 x,y,z
_cell_length_a                   5.89711
_cell_length_b                   23.74674
_cell_length_c                   7.41121
_cell_angle_alpha                90.0
_cell_angle_beta                 98.0491
_cell_angle_gamma                90.0
loop_
_atom_site_label
_atom_site_type_symbol
_atom_site_fract_x
_atom_site_fract_y
_atom_site_fract_z
     1  C          0.67245170       0.53287400       0.60489140
     2  C          0.32754830       0.03287400       0.89510860
     3  C          0.32754830       0.46712600       0.39510860
     4  C          0.67245170       0.96712600       0.10489140
     5  C          0.50994170       0.55861400       0.47337140
     6  C          0.49005830       0.05861400       0.02662860
     7  C          0.49005830       0.44138600       0.52662860
     8  C          0.50994170       0.94138600       0.97337140
     9  C          0.34335170       0.52527400       0.37283140
    10  C          0.65664830       0.02527400       0.12716860
    11  C          0.65664830       0.47472600       0.62716860
    12  C          0.34335170       0.97472600       0.87283140
    13  H          0.23470000       0.54310000       0.28430000
    14  H          0.76530000       0.04310000       0.21570000
    15  H          0.76530000       0.45690000       0.71570000
    16  H          0.23470000       0.95690000       0.78430000
    17  C          0.85369170       0.56431400       0.72565140
    18  C          0.14630830       0.06431400       0.77434860
    19  C          0.14630830       0.43568600       0.27434860
    20  C          0.85369170       0.93568600       0.22565140
    21  C          0.80890190       0.61592400       0.80364150
    22  C          0.19109810       0.11592400       0.69635850
    23  C          0.19109810       0.38407600       0.19635850
    24  C          0.80890190       0.88407600       0.30364150
    25  H          0.66090000       0.63220000       0.77690000
    26  H          0.33910000       0.13220000       0.72310000
    27  H          0.33910000       0.36780000       0.22310000
    28  H          0.66090000       0.86780000       0.27690000
    29  C         -0.02258000       0.64366500       0.91967160
    30  C          0.02258000       0.14366500       0.58032840
    31  C          0.02258000       0.35633500       0.08032840
    32  C         -0.02258000       0.85633500       0.41967160
    33  H          0.94400000       0.67880000       0.97110000
    34  H          0.05600000       0.17880000       0.52890000
    35  H          0.05600000       0.32120000       0.02890000
    36  H          0.94400000       0.82120000       0.47110000
    37  C          0.19402000       0.62054500       0.96122160
    38  C          0.80598000       0.12054500       0.53877840
    39  C          0.80598000       0.37945500       0.03877840
    40  C          0.19402000       0.87945500       0.46122160
    41  H          0.30960000       0.63980000       0.03990000
    42  H          0.69040000       0.13980000       0.46010000
    43  H          0.69040000       0.36020000       0.96010000
    44  H          0.30960000       0.86020000       0.53990000
    45  C          0.24021190       0.56904500       0.88678160
    46  C          0.75978810       0.06904500       0.61321840
    47  C          0.75978810       0.43095500       0.11321840
    48  C          0.24021190       0.93095500       0.38678160
    49  H          0.38770000       0.55260000       0.91580000
    50  H          0.61230000       0.05260000       0.58420000
    51  H          0.61230000       0.44740000       0.08420000
    52  H          0.38770000       0.94740000       0.41580000
    53  C          0.07214180       0.54121400       0.76985150
    54  C          0.92785820       0.04121400       0.73014850
    55  C          0.92785820       0.45878600       0.23014850
    56  C          0.07214180       0.95878600       0.26985150
    57  H          0.10630000       0.50600000       0.71930000
    58  H          0.89370000       0.00600000       0.78070000
    59  H          0.89370000       0.49400000       0.28070000
    60  H          0.10630000       0.99400000       0.21930000
    61  C          0.50673170       0.62013400       0.43157140
    62  C          0.49326830       0.12013400       0.06842860
    63  C          0.49326830       0.37986600       0.56842860
    64  C          0.50673170       0.87986600       0.93157140
    65  C          0.68180190       0.64565500       0.35411160
    66  C          0.31819810       0.14565500       0.14588840
    67  C          0.31819810       0.35434500       0.64588840
    68  C          0.68180190       0.85434500       0.85411160
    69  H          0.81000000       0.62400000       0.33050000
    70  H          0.19000000       0.12400000       0.16950000
    71  H          0.19000000       0.37600000       0.66950000
    72  H          0.81000000       0.87600000       0.83050000
    73  C          0.67052000       0.70260500       0.31103170
    74  C          0.32948000       0.20260500       0.18896830
    75  C          0.32948000       0.29739500       0.68896830
    76  C          0.67052000       0.79739500       0.81103170
    77  H          0.79020000       0.71970000       0.25700000
    78  H          0.20980000       0.21970000       0.24300000
    79  H          0.20980000       0.28030000       0.74300000
    80  H          0.79020000       0.78030000       0.75700000
    81  C          0.48552000       0.73449500       0.34654170
    82  C          0.51448000       0.23449500       0.15345830
    83  C          0.51448000       0.26550500       0.65345830
    84  C          0.48552000       0.76550500       0.84654170
    85  H          0.47910000       0.77360000       0.31870000
    86  H          0.52090000       0.27360000       0.18130000
    87  H          0.52090000       0.22640000       0.68130000
    88  H          0.47910000       0.72640000       0.81870000
    89  C          0.31072000       0.70945500       0.42236170
    90  C          0.68928000       0.20945500       0.07763830
    91  C          0.68928000       0.29054500       0.57763830
    92  C          0.31072000       0.79054500       0.92236170
    93  H          0.18310000       0.73130000       0.44600000
    94  H          0.81690000       0.23130000       0.05400000
    95  H          0.81690000       0.26870000       0.55400000
    96  H          0.18310000       0.76870000       0.94600000
    97  C          0.31970190       0.65251400       0.46449160
    98  C          0.68029810       0.15251400       0.03550840
    99  C          0.68029810       0.34748600       0.53550840
   100  C          0.31970190       0.84748600       0.96449160
   101  H          0.19780000       0.63550000       0.51600000
   102  H          0.80220000       0.13550000      -0.01600000
   103  H          0.80220000       0.36450000       0.48400000
   104  H          0.19780000       0.86450000       0.01600000
