data_KIDJUD03
_symmetry_space_group_name_H-M    'P1'
_symmetry_Int_Tables_number       1
loop_
_symmetry_equiv_pos_site_id
_symmetry_equiv_pos_as_xyz
1 x,y,z
_cell_length_a                   6.08811
_cell_length_b                   8.41192
_cell_length_c                   10.65612
_cell_angle_alpha                104.5171
_cell_angle_beta                 91.2591
_cell_angle_gamma                92.3591
loop_
_atom_site_label
_atom_site_type_symbol
_atom_site_fract_x
_atom_site_fract_y
_atom_site_fract_z
     1  C          0.15122000       0.96108850       0.89923870
     2  C          0.84878000       0.03891150       0.10076130
     3  C          0.04392000       0.11065150       0.92263870
     4  C          0.95608000       0.88934850       0.07736130
     5  C          0.89538000       0.14506150       0.02257130
     6  C          0.10462000       0.85493850       0.97742870
     7  H          0.82280000       0.24560000       0.03800000
     8  H          0.17720000       0.75440000       0.96200000
     9  C          0.30562000       0.91038850       0.79127870
    10  C          0.69438000       0.08961150       0.20872130
    11  C          0.24732000       0.91083840       0.66434860
    12  C          0.75268000       0.08916160       0.33565140
    13  H          0.10970000       0.95090000       0.64610000
    14  H          0.89030000       0.04910000       0.35390000
    15  C          0.38793000       0.85348820       0.56448850
    16  C          0.61207000       0.14651180       0.43551150
    17  H          0.34590000       0.85350000       0.47810000
    18  H          0.65410000       0.14650000       0.52190000
    19  C          0.59073000       0.79586820       0.59024840
    20  C          0.40927000       0.20413180       0.40975160
    21  H          0.68740000       0.75640000       0.52180000
    22  H          0.31260000       0.24360000       0.47820000
    23  C          0.65022000       0.79650830       0.71599840
    24  C          0.34978000       0.20349170       0.28400160
    25  H          0.78900000       0.75840000       0.73440000
    26  H          0.21100000       0.24160000       0.26560000
    27  C          0.50892000       0.85225840       0.81491860
    28  C          0.49108000       0.14774160       0.18508140
    29  H          0.55120000       0.85100000       0.90100000
    30  H          0.44880000       0.14900000       0.09900000
    31  C          0.09032000       0.23605150       0.84882870
    32  C          0.90968000       0.76394850       0.15117130
    33  C          0.30002000       0.31045170       0.85197840
    34  C          0.69998000       0.68954830       0.14802160
    35  H          0.41570000       0.27910000       0.90060000
    36  H          0.58430000       0.72090000       0.09940000
    37  C          0.34142000       0.42861170       0.78557830
    38  C          0.65858000       0.57138830       0.21442170
    39  H          0.48460000       0.47940000       0.79020000
    40  H          0.51540000       0.52060000       0.20980000
    41  C          0.17843000       0.47385170       0.71298850
    42  C          0.82157000       0.52614830       0.28701150
    43  H          0.20860000       0.55410000       0.66610000
    44  H          0.79140000       0.44590000       0.33390000
    45  C          0.96997000       0.40174180       0.70855850
    46  C          0.03003000       0.59825820       0.29144150
    47  H          0.85620000       0.43260000       0.65830000
    48  H          0.14380000       0.56740000       0.34170000
    49  C          0.92498000       0.28486170       0.77662850
    50  C          0.07502000       0.71513830       0.22337150
    51  H          0.78000000       0.23760000       0.77400000
    52  H          0.22000000       0.76240000       0.22600000
