data_KIDJUD
_symmetry_space_group_name_H-M    'P1'
_symmetry_Int_Tables_number       1
loop_
_symmetry_equiv_pos_site_id
_symmetry_equiv_pos_as_xyz
1 x,y,z
_cell_length_a                   5.8723
_cell_length_b                   7.4373
_cell_length_c                   11.8517
_cell_angle_alpha                83.773
_cell_angle_beta                 89.753
_cell_angle_gamma                81.482
loop_
_atom_site_label
_atom_site_type_symbol
_atom_site_fract_x
_atom_site_fract_y
_atom_site_fract_z
     1  C          0.00945000       0.11424000       0.25792000
     2  C         -0.00945000       0.88576000       0.74208000
     3  C          0.84095000       0.13694000       0.44772000
     4  C          0.15905000       0.86306000       0.55228000
     5  H          0.73010000       0.23070000       0.41090000
     6  H          0.26990000       0.76930000       0.58910000
     7  C          0.01095000       0.04904000       0.38222000
     8  C         -0.01095000       0.95096000       0.61778000
     9  C          0.82405000       0.09594000       0.18892000
    10  C          0.17595000       0.90406000       0.81108000
    11  H          0.70160000       0.03750000       0.22080000
    12  H          0.29840000       0.96250000       0.77920000
    13  C          0.81505000       0.16164000       0.07443000
    14  C          0.18495000       0.83836000       0.92557000
    15  H          0.68940000       0.14610000       0.02790000
    16  H          0.31060000       0.85390000       0.97210000
    17  C          0.17535000       0.90626000       0.43422000
    18  C          0.82465000       0.09374000       0.56578000
    19  C          0.31885000       0.74116000       0.26722000
    20  C          0.68115000       0.25884000       0.73278000
    21  H          0.17080000       0.77510000       0.23270000
    22  H          0.82920000       0.22490000       0.76730000
    23  C          0.57975000       0.74526000       0.42042000
    24  C          0.42025000       0.25474000       0.57958000
    25  H          0.61310000       0.78280000       0.49180000
    26  H          0.38690000       0.21720000       0.50820000
    27  C          0.75115000       0.63746000       0.36533000
    28  C          0.24885000       0.36254000       0.63467000
    29  H          0.89880000       0.60100000       0.39980000
    30  H          0.10120000       0.39900000       0.60020000
    31  C          0.70565000       0.58386000       0.26053000
    32  C          0.29435000       0.41614000       0.73947000
    33  H          0.82290000       0.51230000       0.22240000
    34  H          0.17710000       0.48770000       0.77760000
    35  C         -0.00684000       0.25074000       0.02853000
    36  C          0.00684000       0.74926000       0.97147000
    37  H         -0.01220000       0.29750000       0.95050000
    38  H          0.01220000       0.70250000       0.04950000
    39  C          0.49015000       0.63466000       0.21142000
    40  C          0.50985000       0.36534000       0.78858000
    41  H          0.45820000       0.59720000       0.13980000
    42  H          0.54180000       0.40280000       0.86020000
    43  C          0.18665000       0.20424000       0.21013000
    44  C          0.81335000       0.79576000       0.78987000
    45  H          0.31330000       0.21940000       0.25590000
    46  H          0.68670000       0.78060000       0.74410000
    47  C          0.35955000       0.79906000       0.37232000
    48  C          0.64045000       0.20094000       0.62768000
    49  C          0.17675000       0.27124000       0.09563000
    50  C          0.82325000       0.72876000       0.90437000
    51  H          0.29730000       0.33150000       0.06360000
    52  H          0.70270000       0.66850000       0.93640000
