data_KONTIQ01
_symmetry_space_group_name_H-M    'P1'
_symmetry_Int_Tables_number       1
loop_
_symmetry_equiv_pos_site_id
_symmetry_equiv_pos_as_xyz
1 x,y,z
_cell_length_a                   14.1501
_cell_length_b                   3.6229
_cell_length_c                   15.0281
_cell_angle_alpha                90.0
_cell_angle_beta                 97.527
_cell_angle_gamma                90.0
loop_
_atom_site_label
_atom_site_type_symbol
_atom_site_fract_x
_atom_site_fract_y
_atom_site_fract_z
     1  O          0.37792000       0.20439000       0.73022000
     2  O          0.12208000       0.20439000       0.76978000
     3  O          0.62208000       0.79561000       0.26978000
     4  O          0.87792000       0.79561000       0.23022000
     5  O          0.48992000       0.40499000       0.65232000
     6  O          0.01008000       0.40499000       0.84768000
     7  O          0.51008000       0.59501000       0.34768000
     8  O         -0.01008000       0.59501000       0.15232000
     9  O          0.10182000       0.86052000       0.50492000
    10  O          0.39818000       0.86052000      -0.00492000
    11  O          0.89818000       0.13948000       0.49508000
    12  O          0.60182000       0.13948000       0.00492000
    13  O          0.15502000       0.00758000       0.34302000
    14  O          0.34498000       0.00758000       0.15698000
    15  O          0.84498000      -0.00758000       0.65698000
    16  O          0.65502000      -0.00758000       0.84302000
    17  O          0.33512000       0.26798000       0.32862000
    18  O          0.16488000       0.26798000       0.17138000
    19  O          0.66488000       0.73202000       0.67138000
    20  O          0.83512000       0.73202000       0.82862000
    21  C          0.34552000       0.17501000       0.57322000
    22  C          0.15448000       0.17501000       0.92678000
    23  C          0.65448000       0.82499000       0.42678000
    24  C          0.84552000       0.82499000       0.07322000
    25  C          0.25352000       0.04401000       0.57842000
    26  C          0.24648000       0.04401000       0.92158000
    27  C          0.74648000       0.95599000       0.42158000
    28  C          0.75352000       0.95599000       0.07842000
    29  C          0.19312000      -0.01621000       0.50042000
    30  C          0.30688000      -0.01621000      -0.00042000
    31  C          0.80688000       0.01621000       0.49958000
    32  C          0.69312000       0.01621000       0.00042000
    33  C          0.22072000       0.06061000       0.41722000
    34  C          0.27928000       0.06061000       0.08278000
    35  C          0.77928000       0.93939000       0.58278000
    36  C          0.72072000       0.93939000       0.91722000
    37  C          0.31262000       0.19101000       0.41242000
    38  C          0.18738000       0.19101000       0.08758000
    39  C          0.68738000       0.80899000       0.58758000
    40  C          0.81262000       0.80899000       0.91242000
    41  C          0.37402000       0.24301000       0.49052000
    42  C          0.12598000       0.24301000       0.00948000
    43  C          0.62598000       0.75699000       0.50948000
    44  C          0.87402000       0.75699000       0.99052000
    45  C          0.41243000       0.27201000       0.65442000
    46  C          0.08757000       0.27201000       0.84558000
    47  C          0.58757000       0.72799000       0.34558000
    48  C          0.91243000       0.72799000       0.15442000
    49  H          0.41260000       0.28580000       0.77480000
    50  H          0.08740000       0.28580000       0.72520000
    51  H          0.58740000       0.71420000       0.22520000
    52  H          0.91260000       0.71420000       0.27480000
    53  H          0.22920000      -0.01050000       0.63470000
    54  H          0.27080000      -0.01050000       0.86530000
    55  H          0.77080000       0.01050000       0.36530000
    56  H          0.72920000       0.01050000       0.13470000
    57  H          0.07770000       0.75640000       0.45650000
    58  H          0.42230000       0.75640000       0.04350000
    59  H          0.92230000       0.24360000       0.54350000
    60  H          0.57770000       0.24360000       0.95650000
    61  H          0.18080000       0.07100000       0.29010000
    62  H          0.31920000       0.07100000       0.20990000
    63  H          0.81920000       0.92900000       0.70990000
    64  H          0.68080000       0.92900000       0.79010000
    65  H          0.38930000       0.37300000       0.33310000
    66  H          0.11070000       0.37300000       0.16690000
    67  H          0.61070000       0.62700000       0.66690000
    68  H          0.88930000       0.62700000       0.83310000
    69  H          0.43460000       0.33060000       0.48470000
    70  H          0.06540000       0.33060000       0.01530000
    71  H          0.56540000       0.66940000       0.51530000
    72  H          0.93460000       0.66940000       0.98470000
    73  O          0.51022000       0.48798000       0.13132000
    74  O         -0.01022000       0.48798000       0.36868000
    75  O          0.48978000       0.51202000       0.86868000
    76  O          0.01022000       0.51202000       0.63132000
    77  H          0.46730000       0.36750000       0.14930000
    78  H          0.03270000       0.36750000       0.35070000
    79  H          0.53270000       0.63250000       0.85070000
    80  H          0.96730000       0.63250000       0.64930000
    81  H          0.53470000       0.36360000       0.09580000
    82  H          0.96530000       0.36360000       0.40420000
    83  H          0.46530000       0.63640000       0.90420000
    84  H          0.03470000       0.63640000       0.59580000
