data_KONTIQ04
_symmetry_space_group_name_H-M    'P1'
_symmetry_Int_Tables_number       1
loop_
_symmetry_equiv_pos_site_id
_symmetry_equiv_pos_as_xyz
1 x,y,z
_cell_length_a                   7.1174
_cell_length_b                   7.5064
_cell_length_c                   30.67917
_cell_angle_alpha                86.5577
_cell_angle_beta                 83.8148
_cell_angle_gamma                68.5316
loop_
_atom_site_label
_atom_site_type_symbol
_atom_site_fract_x
_atom_site_fract_y
_atom_site_fract_z
     1  O          0.29052000       0.79272000       0.03818500
     2  O          0.70948000       0.20728000       0.96181500
     3  O          0.40433000       0.14062000       0.18344500
     4  O          0.59567000       0.85938000       0.81655500
     5  H          0.40100000       0.03280000       0.17860000
     6  H          0.59900000       0.96720000       0.82140000
     7  O          0.32253000       0.01422000       0.10901500
     8  O          0.67747000      -0.01422000       0.89098500
     9  H          0.30630000      -0.01490000       0.08400000
    10  H          0.69370000       0.01490000       0.91600000
    11  O          0.43833000       0.47902000       0.18675500
    12  O          0.56167000       0.52098000       0.81324500
    13  H          0.53640000       0.39060000       0.19680000
    14  H          0.46360000       0.60940000       0.80320000
    15  O          0.24783000       0.56862000       0.00028500
    16  O          0.75217000       0.43138000      -0.00028500
    17  H          0.21810000       0.65780000       0.98140000
    18  H          0.78190000       0.34220000       0.01860000
    19  C          0.28803000       0.63003000       0.03597700
    20  C          0.71197000       0.36997000       0.96402300
    21  C          0.32733000       0.49083000       0.07317800
    22  C          0.67267000       0.50917000       0.92682200
    23  C          0.31083000       0.31203000       0.07027800
    24  C          0.68917000       0.68797000       0.92972200
    25  H          0.28100000       0.27450000       0.04360000
    26  H          0.71900000       0.72550000       0.95640000
    27  C          0.33833000       0.18973000       0.10677700
    28  C          0.66167000       0.81027000       0.89322300
    29  C          0.38173000       0.24783000       0.14583700
    30  C          0.61827000       0.75217000       0.85416300
    31  C          0.37433000       0.54633000       0.11179700
    32  C          0.62567000       0.45367000       0.88820300
    33  H          0.38750000       0.66720000       0.11330000
    34  H          0.61250000       0.33280000       0.88670000
    35  C          0.40133000       0.42483000       0.14772700
    36  C          0.59867000       0.57517000       0.85227300
    37  O          0.24832000       0.26182000       0.27097500
    38  O          0.75168000       0.73818000       0.72902500
    39  H          0.28440000       0.24330000       0.24294000
    40  H          0.71560000       0.75670000       0.75706000
    41  H          0.35720000       0.19830000       0.28417000
    42  H          0.64280000       0.80170000       0.71583000
    43  O          0.74763000       0.25392000       0.23142500
    44  O          0.25237000       0.74608000       0.76857500
    45  H          0.81330000       0.13031500       0.22868000
    46  H          0.18670000       0.86968500       0.77132000
    47  H          0.70740000       0.27430000       0.25924000
    48  H          0.29260000       0.72570000       0.74076000
    49  O          0.64033000       0.69988000       0.28923600
    50  O          0.35967000       0.30012000       0.71076400
    51  H          0.76520000       0.65370000       0.27739000
    52  H          0.23480000       0.34630000       0.72261000
    53  H          0.56530000       0.73270000       0.26716000
    54  H          0.43470000       0.26730000       0.73284000
    55  O          0.40363000       0.81012000       0.21981600
    56  O          0.59637000       0.18988000       0.78018400
    57  H          0.40830000       0.70930000       0.20578000
    58  H          0.59170000       0.29070000       0.79422000
    59  H          0.27720000       0.85430000       0.23238000
    60  H          0.72280000       0.14570000       0.76762000
    61  O          0.83558000       0.16472000       0.06227500
    62  O          0.16442000       0.83528000       0.93772500
    63  O          0.92728000       0.51582000       0.20865500
    64  O          0.07272000       0.48418000       0.79134500
    65  H          0.88550000       0.42610000       0.20610000
    66  H          0.11450000       0.57390000       0.79390000
    67  O          0.76517000       0.95132000       0.02596500
    68  O          0.23483000       0.04868000       0.97403500
    69  H          0.74780000       0.03690000       0.00620000
    70  H          0.25220000       0.96310000       0.99380000
    71  O          0.85427000       0.39072000       0.13346500
    72  O          0.14573000       0.60928000       0.86653500
    73  H          0.83550000       0.36370000       0.10850000
    74  H          0.16450000       0.63630000       0.89150000
    75  O          0.95237000       0.86952000       0.21198500
    76  O          0.04763000       0.13048000       0.78801500
    77  H          0.97530000       0.78080000       0.23100000
    78  H          0.02470000       0.21920000       0.76900000
    79  C          0.81457000       0.00883000       0.06112700
    80  C          0.18543000      -0.00883000       0.93887300
    81  C          0.84287000       0.87353000       0.09892700
    82  C          0.15713000       0.12647000       0.90107300
    83  C          0.88787000       0.92923000       0.13777700
    84  C          0.11213000       0.07077000       0.86222300
    85  H          0.90080000       0.05010000       0.13930000
    86  H          0.09920000       0.94990000       0.86070000
    87  C          0.91347000       0.80753000       0.17401700
    88  C          0.08653000       0.19247000       0.82598300
    89  C          0.89707000       0.62913000       0.17176700
    90  C          0.10293000       0.37087000       0.82823300
    91  C          0.82787000       0.69413000       0.09598700
    92  C          0.17213000       0.30587000       0.90401300
    93  H          0.79680000       0.65700000       0.06940000
    94  H          0.20320000       0.34300000       0.93060000
    95  C          0.85887000       0.57123000       0.13223700
    96  C          0.14113000       0.42877000       0.86776300
    97  O          0.23233000       0.54312000       0.47193500
    98  O          0.76767000       0.45688000       0.52806500
    99  H          0.24640000       0.45860000       0.49180000
   100  H          0.75360000       0.54140000       0.50820000
   101  O          0.08822000       0.97862000       0.28938500
   102  O          0.91178000       0.02138000       0.71061500
   103  H          0.11870000       0.07380000       0.29370000
   104  H          0.88130000       0.92620000       0.70630000
   105  O          0.15723000       0.10032000       0.36445500
   106  O          0.84277000       0.89968000       0.63554500
   107  H          0.16550000       0.13060000       0.38990000
   108  H          0.83450000       0.86940000       0.61010000
   109  O          0.07113000       0.63212000       0.28262500
   110  O          0.92887000       0.36788000       0.71737500
   111  H          0.12620000       0.51300000       0.27990000
   112  H          0.87380000       0.48700000       0.72010000
   113  O          0.17032000       0.32682000       0.43500500
   114  O          0.82968000       0.67318000       0.56499500
   115  C          0.19003000       0.48343000       0.43618800
   116  C          0.80997000       0.51657000       0.56381200
   117  C          0.16603000       0.61733000       0.39823700
   118  C          0.83397000       0.38267000       0.60176300
   119  C          0.17993000       0.79693000       0.40197700
   120  C          0.82007000       0.20307000       0.59802300
   121  H          0.20770000       0.83390000       0.42890000
   122  H          0.79230000       0.16610000       0.57110000
   123  C          0.15233000       0.92013000       0.36553700
   124  C          0.84767000       0.07987000       0.63446300
   125  C          0.11613000       0.86253000       0.32574700
   126  C          0.88387000       0.13747000       0.67425300
   127  C          0.12853000       0.56073000       0.35885700
   128  C          0.87147000       0.43927000       0.64114300
   129  H          0.11800000       0.43890000       0.35690000
   130  H          0.88200000       0.56110000       0.64310000
   131  C          0.10653000       0.68193000       0.32263700
   132  C          0.89347000       0.31807000       0.67736300
   133  O          0.61863000       0.36862000       0.31937500
   134  O          0.38137000       0.63138000       0.68062500
   135  H          0.62920000       0.47280000       0.32480000
   136  H          0.37080000       0.52720000       0.67520000
   137  O          0.71712000       0.71158000       0.46332500
   138  O          0.28288000       0.28842000       0.53667500
   139  O          0.68973000       0.49122000       0.39433500
   140  O          0.31027000       0.50878000       0.60566500
   141  H          0.70220000       0.52020000       0.41960000
   142  H          0.29780000       0.47980000       0.58040000
   143  O          0.75223000       0.93778000       0.50193500
   144  O          0.24777000       0.06222000       0.49806500
   145  H          0.78570000       0.84780000       0.52060000
   146  H          0.21430000       0.15220000       0.47940000
   147  O          0.58383000       0.04182000       0.31273500
   148  O          0.41617000       0.95818000       0.68726500
   149  H          0.60550000       0.92430000       0.31140000
   150  H          0.39450000       0.07570000       0.68860000
   151  C          0.63773000       0.25773000       0.35634800
   152  C          0.36227000       0.74227000       0.64365200
   153  C          0.67473000       0.31533000       0.39590700
   154  C          0.32527000       0.68467000       0.60409300
   155  C          0.69823000       0.19223000       0.43219800
   156  C          0.30177000       0.80777000       0.56780200
   157  H          0.72440000       0.22920000       0.45930000
   158  H          0.27560000       0.77080000       0.54070000
   159  C          0.68293000       0.01373000       0.42858700
   160  C          0.31707000      -0.01373000       0.57141300
   161  C          0.71833000       0.87457000       0.46577700
   162  C          0.28167000       0.12543000       0.53422300
   163  C          0.64193000       0.95797000       0.38929700
   164  C          0.35807000       0.04203000       0.61070300
   165  H          0.62900000       0.83730000       0.38740000
   166  H          0.37100000       0.16270000       0.61260000
   167  C          0.62023000       0.08073000       0.35310700
   168  C          0.37977000       0.91927000       0.64689300
