data_KONTIQ
_symmetry_space_group_name_H-M    'P1'
_symmetry_Int_Tables_number       1
loop_
_symmetry_equiv_pos_site_id
_symmetry_equiv_pos_as_xyz
1 x,y,z
_cell_length_a                   5.7944
_cell_length_b                   4.7195
_cell_length_c                   28.6885
_cell_angle_alpha                90.0
_cell_angle_beta                 95.083
_cell_angle_gamma                90.0
loop_
_atom_site_label
_atom_site_type_symbol
_atom_site_fract_x
_atom_site_fract_y
_atom_site_fract_z
     1  O          0.77513000       0.57794000       0.28320500
     2  O          0.22487000       0.07794000       0.21679500
     3  O          0.22487000       0.42206000       0.71679500
     4  O          0.77513000       0.92206000       0.78320500
     5  H          0.86450000       0.75840000       0.29110000
     6  H          0.13550000       0.25840000       0.20890000
     7  H          0.13550000       0.24160000       0.70890000
     8  H          0.86450000       0.74160000       0.79110000
     9  H          0.79310000       0.54930000       0.25030000
    10  H          0.20690000       0.04930000       0.24970000
    11  H          0.20690000       0.45070000       0.74970000
    12  H          0.79310000       0.95070000       0.75030000
    13  O         -0.00287000       0.94524000       0.11455600
    14  O          0.00287000       0.44524000       0.38544400
    15  O          0.00287000       0.05476000       0.88544400
    16  O         -0.00287000       0.55476000       0.61455600
    17  H         -0.02280000       0.05340000       0.09220000
    18  H          0.02280000       0.55340000       0.40780000
    19  H          0.02280000       0.94660000       0.90780000
    20  H         -0.02280000       0.44660000       0.59220000
    21  O         -0.01197000       0.60284000       0.18947500
    22  O          0.01197000       0.10284000       0.31052500
    23  O          0.01197000       0.39716000       0.81052500
    24  O         -0.01197000       0.89716000       0.68947500
    25  H          0.05070000       0.75860000       0.18980000
    26  H          0.94930000       0.25860000       0.31020000
    27  H          0.94930000       0.24140000       0.81020000
    28  H          0.05070000       0.74140000       0.68980000
    29  O          0.65353000       0.24164000       0.19812500
    30  O          0.34647000       0.74164000       0.30187500
    31  O          0.34647000       0.75836000       0.80187500
    32  O          0.65353000       0.25836000       0.69812500
    33  H          0.53150000       0.15630000       0.20020000
    34  H          0.46850000       0.65630000       0.29980000
    35  H          0.46850000       0.84370000       0.79980000
    36  H          0.53150000       0.34370000       0.70020000
    37  O          0.26463000       0.70634000       0.01282600
    38  O          0.73537000       0.20634000       0.48717400
    39  O          0.73537000       0.29366000       0.98717400
    40  O          0.26463000       0.79366000       0.51282600
    41  H          0.14710000       0.68710000       0.99500000
    42  H          0.85290000       0.18710000       0.50500000
    43  H          0.85290000       0.31290000       0.00500000
    44  H          0.14710000       0.81290000       0.49500000
    45  O          0.10293000       0.35314000       0.04903500
    46  O          0.89707000       0.85314000       0.45096500
    47  O          0.89707000       0.64686000       0.95096500
    48  O          0.10293000       0.14686000       0.54903500
    49  C          0.45554000       0.55215000       0.08415700
    50  C          0.54446000       0.05215000       0.41584300
    51  C          0.54446000       0.44785000       0.91584300
    52  C          0.45554000       0.94785000       0.58415700
    53  C          0.63274000       0.74605000       0.07956800
    54  C          0.36726000       0.24605000       0.42043200
    55  C          0.36726000       0.25395000       0.92043200
    56  C          0.63274000       0.75395000       0.57956800
    57  H          0.63080000       0.86150000       0.05330000
    58  H          0.36920000       0.36150000       0.44670000
    59  H          0.36920000       0.13850000       0.94670000
    60  H          0.63080000       0.63850000       0.55330000
    61  C          0.81194000       0.76465000       0.11470800
    62  C          0.18806000       0.26465000       0.38529200
    63  C          0.18806000       0.23535000       0.88529200
    64  C          0.81194000       0.73535000       0.61470800
    65  C          0.81374000       0.59365000       0.15374700
    66  C          0.18626000       0.09365000       0.34625300
    67  C          0.18626000       0.40635000       0.84625300
    68  C          0.81374000       0.90635000       0.65374700
    69  C          0.63624000       0.40225000       0.15812700
    70  C          0.36376000       0.90225000       0.34187300
    71  C          0.36376000       0.59775000       0.84187300
    72  C          0.63624000       0.09775000       0.65812700
    73  C          0.45714000       0.37825000       0.12326800
    74  C          0.54286000       0.87825000       0.37673200
    75  C          0.54286000       0.62175000       0.87673200
    76  C          0.45714000       0.12175000       0.62326800
    77  H          0.33900000       0.24730000       0.12590000
    78  H          0.66100000       0.74730000       0.37410000
    79  H          0.66100000       0.75270000       0.87410000
    80  H          0.33900000       0.25270000       0.62590000
    81  C          0.25994000       0.52745000       0.04787700
    82  C          0.74006000       0.02745000       0.45212300
    83  C          0.74006000       0.47255000       0.95212300
    84  C          0.25994000      -0.02745000       0.54787700
