data_KONTIQ03
_symmetry_space_group_name_H-M    'P1'
_symmetry_Int_Tables_number       1
loop_
_symmetry_equiv_pos_site_id
_symmetry_equiv_pos_as_xyz
1 x,y,z
_cell_length_a                   9.79437
_cell_length_b                   3.61222
_cell_length_c                   21.590515
_cell_angle_alpha                90.0
_cell_angle_beta                 91.2686
_cell_angle_gamma                90.0
loop_
_atom_site_label
_atom_site_type_symbol
_atom_site_fract_x
_atom_site_fract_y
_atom_site_fract_z
     1  C          0.67337160       0.63325000       0.58435800
     2  C          0.32662840       0.13325000       0.91564200
     3  C          0.32662840       0.36675000       0.41564200
     4  C          0.67337160       0.86675000       0.08435800
     5  H          0.63830000       0.70580000       0.54590000
     6  H          0.36170000       0.20580000       0.95410000
     7  H          0.36170000       0.29420000       0.45410000
     8  H          0.63830000       0.79420000       0.04590000
     9  C          0.81149160       0.56705000       0.59282800
    10  C          0.18850840       0.06705000       0.90717200
    11  C          0.18850840       0.43295000       0.40717200
    12  C          0.81149160       0.93295000       0.09282800
    13  C          0.86369150       0.45875000       0.65029800
    14  C          0.13630850       0.95875000       0.84970200
    15  C          0.13630850       0.54125000       0.34970200
    16  C          0.86369150       0.04125000       0.15029800
    17  C          0.77763170       0.42385000       0.70009800
    18  C          0.22236830       0.92385000       0.79990200
    19  C          0.22236830       0.57615000       0.29990200
    20  C          0.77763170       0.07615000       0.20009800
    21  C          0.63957170       0.48635000       0.69214800
    22  C          0.36042830      -0.01365000       0.80785200
    23  C          0.36042830       0.51365000       0.30785200
    24  C          0.63957170       0.01365000       0.19214800
    25  H          0.58140000       0.45960000       0.72530000
    26  H          0.41860000       0.95960000       0.77470000
    27  H          0.41860000       0.54040000       0.27470000
    28  H          0.58140000       0.04040000       0.22530000
    29  C          0.58767160       0.58955000       0.63421800
    30  C          0.41232840       0.08955000       0.86578200
    31  C          0.41232840       0.41045000       0.36578200
    32  C          0.58767160       0.91045000       0.13421800
    33  C          0.43925160       0.66035000       0.62739800
    34  C          0.56074840       0.16035000       0.87260200
    35  C          0.56074840       0.33965000       0.37260200
    36  C          0.43925160       0.83965000       0.12739800
    37  O          0.90229120       0.59864000       0.54561600
    38  O          0.09770880       0.09864000       0.95438400
    39  O          0.09770880       0.40136000       0.45438400
    40  O          0.90229120       0.90136000       0.04561600
    41  H          0.86130000       0.65990000       0.51370000
    42  H          0.13870000       0.15990000       0.98630000
    43  H          0.13870000       0.34010000       0.48630000
    44  H          0.86130000       0.84010000       0.01370000
    45  O          0.00108110       0.38814000       0.65588600
    46  O         -0.00108110       0.88814000       0.84411400
    47  O         -0.00108110       0.61186000       0.34411400
    48  O          0.00108110       0.11186000       0.15588600
    49  H          0.02000000       0.32650000       0.69160000
    50  H          0.98000000       0.82650000       0.80840000
    51  H          0.98000000       0.67350000       0.30840000
    52  H          0.02000000       0.17350000       0.19160000
    53  O          0.83973120       0.32905000       0.75521600
    54  O          0.16026880       0.82905000       0.74478400
    55  O          0.16026880       0.67095000       0.24478400
    56  O          0.83973120       0.17095000       0.25521600
    57  H          0.78230000       0.31690000       0.78220000
    58  H          0.21770000       0.81690000       0.71780000
    59  H          0.21770000       0.68310000       0.21780000
    60  H          0.78230000       0.18310000       0.28220000
    61  O          0.35878130       0.59815000       0.66792600
    62  O          0.64121870       0.09815000       0.83207400
    63  O          0.64121870       0.40185000       0.33207400
    64  O          0.35878130       0.90185000       0.16792600
    65  O          0.40210120       0.79595000       0.57298600
    66  O          0.59789880       0.29595000       0.92701400
    67  O          0.59789880       0.20405000       0.42701400
    68  O          0.40210120       0.70405000       0.07298600
    69  H          0.31930000       0.82920000       0.57190000
    70  H          0.68070000       0.32920000       0.92810000
    71  H          0.68070000       0.17080000       0.42810000
    72  H          0.31930000       0.67080000       0.07190000
    73  O          0.14365130       0.01255000       0.56257700
    74  O          0.85634870       0.51255000       0.93742300
    75  O          0.85634870      -0.01255000       0.43742300
    76  O          0.14365130       0.48745000       0.06257700
    77  H          0.12030000       0.14780000       0.59161200
    78  H          0.87970000       0.64780000       0.90838800
    79  H          0.87970000       0.85220000       0.40838800
    80  H          0.12030000       0.35220000       0.09161200
    81  H          0.07740000       0.87914000       0.55520000
    82  H          0.92260000       0.37914000       0.94480000
    83  H          0.92260000       0.12086000       0.44480000
    84  H          0.07740000       0.62086000       0.05520000
