data_KONTIQ02
_symmetry_space_group_name_H-M    'P1'
_symmetry_Int_Tables_number       1
loop_
_symmetry_equiv_pos_site_id
_symmetry_equiv_pos_as_xyz
1 x,y,z
_cell_length_a                   14.1583
_cell_length_b                   3.6241
_cell_length_c                   15.0363
_cell_angle_alpha                90.0
_cell_angle_beta                 97.603
_cell_angle_gamma                90.0
loop_
_atom_site_label
_atom_site_type_symbol
_atom_site_fract_x
_atom_site_fract_y
_atom_site_fract_z
     1  O          0.48997110       0.59634000       0.65260100
     2  O          0.01002890       0.59634000       0.84739900
     3  O          0.51002890       0.40366000       0.34739900
     4  O         -0.01002890       0.40366000       0.15260100
     5  O          0.37761120       0.79524000       0.73064900
     6  O          0.12238880       0.79524000       0.76935100
     7  O          0.62238880       0.20476000       0.26935100
     8  O          0.87761120       0.20476000       0.23064900
     9  H          0.41400000       0.71150000       0.77700000
    10  H          0.08600000       0.71150000       0.72300000
    11  H          0.58600000       0.28850000       0.22300000
    12  H          0.91400000       0.28850000       0.27700000
    13  O          0.33558100       0.73205000       0.32867900
    14  O          0.16441900       0.73205000       0.17132100
    15  O          0.66441900       0.26795000       0.67132100
    16  O          0.83558100       0.26795000       0.82867900
    17  H          0.39150000       0.66800000       0.33290000
    18  H          0.10850000       0.66800000       0.16710000
    19  H          0.60850000       0.33200000       0.66710000
    20  H          0.89150000       0.33200000       0.83290000
    21  O          0.15477100      -0.00845000       0.34282900
    22  O          0.34522900      -0.00845000       0.15717100
    23  O          0.84522900       0.00845000       0.65717100
    24  O          0.65477100       0.00845000       0.84282900
    25  H          0.17970000       0.95250000       0.29750000
    26  H          0.32030000       0.95250000       0.20250000
    27  H          0.82030000       0.04750000       0.70250000
    28  H          0.67970000       0.04750000       0.79750000
    29  O          0.10203100       0.14135000       0.50437100
    30  O          0.39796900       0.14135000      -0.00437100
    31  O          0.89796900       0.85865000       0.49562900
    32  O          0.60203100       0.85865000       0.00437100
    33  H          0.10170000       0.36750000       0.50350000
    34  H          0.39830000       0.36750000      -0.00350000
    35  H          0.89830000       0.63250000       0.49650000
    36  H          0.60170000       0.63250000       0.00350000
    37  C          0.34526130       0.82364000       0.57337120
    38  C          0.15473870       0.82364000       0.92662880
    39  C          0.65473870       0.17636000       0.42662880
    40  C          0.84526130       0.17636000       0.07337120
    41  C          0.37492140       0.75834000       0.49016130
    42  C          0.12507860       0.75834000       0.00983870
    43  C          0.62507860       0.24166000       0.50983870
    44  C          0.87492140       0.24166000       0.99016130
    45  H          0.43690000       0.68000000       0.48680000
    46  H          0.06310000       0.68000000       0.01320000
    47  H          0.56310000       0.32000000       0.51320000
    48  H          0.93690000       0.32000000       0.98680000
    49  C          0.31229140       0.80994000       0.41252120
    50  C          0.18770860       0.80994000       0.08747880
    51  C          0.68770860       0.19006000       0.58747880
    52  C          0.81229140       0.19006000       0.91252120
    53  C          0.22061130       0.93855000       0.41721120
    54  C          0.27938870       0.93855000       0.08278880
    55  C          0.77938870       0.06145000       0.58278880
    56  C          0.72061130       0.06145000       0.91721120
    57  C          0.19278130       0.01635000       0.50046130
    58  C          0.30721870       0.01635000      -0.00046130
    59  C          0.80721870      -0.01635000       0.49953870
    60  C          0.69278130      -0.01635000       0.00046130
    61  C          0.25395140       0.95815000       0.57886130
    62  C          0.24604860       0.95815000       0.92113870
    63  C          0.74604860       0.04185000       0.42113870
    64  C          0.75395140       0.04185000       0.07886130
    65  H          0.23450000       0.00800000       0.63430000
    66  H          0.26550000       0.00800000       0.86570000
    67  H          0.76550000      -0.00800000       0.36570000
    68  H          0.73450000      -0.00800000       0.13430000
    69  C          0.41178140       0.73024000       0.65465130
    70  C          0.08821860       0.73024000       0.84534870
    71  C          0.58821860       0.26976000       0.34534870
    72  C          0.91178140       0.26976000       0.15465130
    73  O          0.01035100       0.48645000       0.63102100
    74  O          0.48964900       0.48645000       0.86897900
    75  O         -0.01035100       0.51355000       0.36897900
    76  O          0.51035100       0.51355000       0.13102100
    77  H          0.96620000       0.35540000       0.65480000
    78  H          0.53380000       0.35540000       0.84520000
    79  H          0.03380000       0.64460000       0.34520000
    80  H          0.46620000       0.64460000       0.15480000
    81  H          0.92100000       0.66150000       0.62090000
    82  H          0.57900000       0.66150000       0.87910000
    83  H          0.07900000       0.33850000       0.37910000
    84  H          0.42100000       0.33850000       0.12090000
