data_KOPDAW01
_symmetry_space_group_name_H-M    'P1'
_symmetry_Int_Tables_number       1
loop_
_symmetry_equiv_pos_site_id
_symmetry_equiv_pos_as_xyz
1 x,y,z
_cell_length_a                   4.05583
_cell_length_b                   20.447216
_cell_length_c                   16.183312
_cell_angle_alpha                90.0
_cell_angle_beta                 102.8785
_cell_angle_gamma                90.0
loop_
_atom_site_label
_atom_site_type_symbol
_atom_site_fract_x
_atom_site_fract_y
_atom_site_fract_z
     1  S          0.57549190       0.45117300       0.39761400
     2  S          0.42450810       0.95117300       0.10238600
     3  S          0.42450810       0.54882700       0.60238600
     4  S          0.57549190       0.04882700       0.89761400
     5  O          0.89743000       0.63471150       0.06848170
     6  O          0.10257000       0.13471150       0.43151830
     7  O          0.10257000       0.36528850       0.93151830
     8  O          0.89743000       0.86528850       0.56848170
     9  O          0.17848000       0.57007130       0.00453150
    10  O          0.82152000       0.07007130       0.49546850
    11  O          0.82152000       0.42992870      -0.00453150
    12  O          0.17848000       0.92992870       0.50453150
    13  O          0.24399000       0.25380140       0.74730160
    14  O          0.75601000       0.75380140       0.75269840
    15  O          0.75601000       0.74619860       0.25269840
    16  O          0.24399000       0.24619860       0.24730160
    17  O          0.94009000       0.17484130       0.69054160
    18  O          0.05991000       0.67484130       0.80945840
    19  O          0.05991000       0.82515870       0.30945840
    20  O          0.94009000       0.32515870       0.19054160
    21  N          0.08908000       0.58839150       0.06753180
    22  N          0.91092000       0.08839150       0.43246820
    23  N          0.91092000       0.41160850       0.93246820
    24  N          0.08908000       0.91160850       0.56753180
    25  N          0.05878000       0.22827140       0.68725160
    26  N          0.94122000       0.72827140       0.81274840
    27  N          0.94122000       0.77172860       0.31274840
    28  N          0.05878000       0.27172860       0.18725160
    29  C          0.21737000       0.55353140       0.14789170
    30  C          0.78263000       0.05353140       0.35210830
    31  C          0.78263000       0.44646860       0.85210830
    32  C          0.21737000       0.94646860       0.64789170
    33  C          0.16137000       0.58038130       0.22175180
    34  C          0.83863000       0.08038130       0.27824820
    35  C          0.83863000       0.41961870       0.77824820
    36  C          0.16137000       0.91961870       0.72175180
    37  H          0.04900000       0.62010000       0.22110000
    38  H          0.95100000       0.12010000       0.27890000
    39  H          0.95100000       0.37990000       0.77890000
    40  H          0.04900000       0.87990000       0.72110000
    41  C          0.27597000       0.54692120       0.29634160
    42  C          0.72403000       0.04692120       0.20365840
    43  C          0.72403000       0.45307880       0.70365840
    44  C          0.27597000       0.95307880       0.79634160
    45  H          0.24070000       0.56440000       0.34670000
    46  H          0.75930000       0.06440000       0.15330000
    47  H          0.75930000       0.43560000       0.65330000
    48  H          0.24070000       0.93560000       0.84670000
    49  C          0.44306000       0.48756110       0.29785140
    50  C          0.55694000       0.98756110       0.20214860
    51  C          0.55694000       0.51243890       0.70214860
    52  C          0.44306000       0.01243890       0.79785140
    53  C          0.49707000       0.46210130       0.22200150
    54  C          0.50293000       0.96210130       0.27799850
    55  C          0.50293000       0.53789870       0.77799850
    56  C          0.49707000       0.03789870       0.72200150
    57  H          0.60930000       0.42250000       0.22180000
    58  H          0.39070000       0.92250000       0.27820000
    59  H          0.39070000       0.57750000       0.77820000
    60  H          0.60930000       0.07750000       0.72180000
    61  C          0.38337000       0.49586140       0.14731160
    62  C          0.61663000      -0.00413860       0.35268840
    63  C          0.61663000       0.50413860       0.85268840
    64  C          0.38337000       0.00413860       0.64731160
    65  H          0.42010000       0.47920000       0.09670000
    66  H          0.57990000       0.97920000       0.40330000
    67  H          0.57990000       0.52080000       0.90330000
    68  H          0.42010000       0.02080000       0.59670000
    69  C          0.73717000       0.37210120       0.37617140
    70  C          0.26283000       0.87210120       0.12382860
    71  C          0.26283000       0.62789880       0.62382860
    72  C          0.73717000       0.12789880       0.87617140
    73  H          0.56860000       0.34880000       0.33460000
    74  H          0.43140000       0.84880000       0.16540000
    75  H          0.43140000       0.65120000       0.66540000
    76  H          0.56860000       0.15120000       0.83460000
    77  H          0.93790000       0.37740000       0.35360000
    78  H          0.06210000       0.87740000       0.14640000
    79  H          0.06210000       0.62260000       0.64640000
    80  H          0.93790000       0.12260000       0.85360000
    81  C          0.82156000       0.33417120       0.45771140
    82  C          0.17844000       0.83417120       0.04228860
    83  C          0.17844000       0.66582880       0.54228860
    84  C          0.82156000       0.16582880       0.95771140
    85  C          0.04116000       0.35987120       0.52893140
    86  C         -0.04116000       0.85987120       0.97106860
    87  C         -0.04116000       0.64012880       0.47106860
    88  C          0.04116000       0.14012880       0.02893140
    89  H          0.13600000       0.40100000       0.52590000
    90  H          0.86400000       0.90100000       0.97410000
    91  H          0.86400000       0.59900000       0.47410000
    92  H          0.13600000       0.09900000       0.02590000
    93  C          0.11927000       0.32537120       0.60347150
    94  C          0.88073000       0.82537120       0.89652850
    95  C          0.88073000       0.67462880       0.39652850
    96  C          0.11927000       0.17462880       0.10347150
    97  H          0.26660000       0.34260000       0.65090000
    98  H          0.73340000       0.84260000       0.84910000
    99  H          0.73340000       0.65740000       0.34910000
   100  H          0.26660000       0.15740000       0.15090000
   101  C         -0.02533000       0.26479120       0.60659150
   102  C          0.02533000       0.76479120       0.89340850
   103  C          0.02533000       0.73520880       0.39340850
   104  C         -0.02533000       0.23520880       0.10659150
   105  C          0.76017000       0.23786130       0.53814170
   106  C          0.23983000       0.73786130       0.96185830
   107  C          0.23983000       0.76213870       0.46185830
   108  C          0.76017000       0.26213870       0.03814170
   109  H          0.66800000       0.19660000       0.54170000
   110  H          0.33200000       0.69660000       0.95830000
   111  H          0.33200000       0.80340000       0.45830000
   112  H          0.66800000       0.30340000       0.04170000
   113  C          0.68207000       0.27283120       0.46348150
   114  C          0.31793000       0.77283120       0.03651850
   115  C          0.31793000       0.72716880       0.53651850
   116  C          0.68207000       0.22716880       0.96348150
   117  H          0.53430000       0.25510000       0.41650000
   118  H          0.46570000       0.75510000       0.08350000
   119  H          0.46570000       0.74490000       0.58350000
   120  H          0.53430000       0.24490000       0.91650000
