data_KOPDAW02
_symmetry_space_group_name_H-M    'P1'
_symmetry_Int_Tables_number       1
loop_
_symmetry_equiv_pos_site_id
_symmetry_equiv_pos_as_xyz
1 x,y,z
_cell_length_a                   13.10307
_cell_length_b                   13.86608
_cell_length_c                   15.68621
_cell_angle_alpha                81.8094
_cell_angle_beta                 71.8613
_cell_angle_gamma                79.6283
loop_
_atom_site_label
_atom_site_type_symbol
_atom_site_fract_x
_atom_site_fract_y
_atom_site_fract_z
     1  S          0.56439140       0.00017140       0.59982140
     2  S          0.43560860      -0.00017140       0.40017860
     3  O          0.12345000       0.78915000       0.78335000
     4  O          0.87655000       0.21085000       0.21665000
     5  O          0.22445000       0.70055000       0.85867000
     6  O          0.77555000       0.29945000       0.14133000
     7  N          0.21016000       0.76395000       0.80076000
     8  N          0.78984000       0.23605000       0.19924000
     9  N          0.02685000       0.12156000       0.35456000
    10  N          0.97315000       0.87844000       0.64544000
    11  O          0.04475000       0.19895000       0.36915000
    12  O          0.95525000       0.80105000       0.63085000
    13  O          0.07705000       0.07945000       0.28845000
    14  O          0.92295000       0.92055000       0.71155000
    15  C          0.30106000       0.81925000       0.75175000
    16  C          0.69894000       0.18075000       0.24825000
    17  C          0.28326000       0.89846000       0.69225000
    18  C          0.71674000       0.10154000       0.30775000
    19  H          0.21560000       0.91560000       0.68220000
    20  H          0.78440000       0.08440000       0.31780000
    21  C          0.36565000       0.95216000       0.64765000
    22  C          0.63435000       0.04784000       0.35235000
    23  H          0.35380000       0.00590000       0.60730000
    24  H          0.64620000      -0.00590000       0.39270000
    25  C          0.46685000       0.92665000       0.66215000
    26  C          0.53315000       0.07335000       0.33785000
    27  C          0.48235000       0.84715000       0.72285000
    28  C          0.51765000       0.15285000       0.27715000
    29  H          0.54940000       0.82950000       0.73360000
    30  H          0.45060000       0.17050000       0.26640000
    31  C          0.39916000       0.79385000       0.76755000
    32  C          0.60084000       0.20615000       0.23245000
    33  H          0.41000000       0.74040000       0.80850000
    34  H          0.59000000       0.25960000       0.19150000
    35  C          0.69095000       0.93945000       0.62075000
    36  C          0.30905000       0.06055000       0.37925000
    37  H          0.69060000       0.94810000       0.68110000
    38  H          0.30940000       0.05190000       0.31890000
    39  H          0.70070000       0.86950000       0.61450000
    40  H          0.29930000       0.13050000       0.38550000
    41  C          0.77955000       0.98675000       0.55205000
    42  C          0.22045000       0.01325000       0.44795000
    43  C          0.83996000       0.94075000       0.47786000
    44  C          0.16004000       0.05925000       0.52214000
    45  H          0.82550000       0.87940000       0.47110000
    46  H          0.17450000       0.12060000       0.52890000
    47  C          0.92346000       0.98236000       0.41115000
    48  C          0.07654000       0.01764000       0.58885000
    49  H          0.96560000       0.94990000       0.36100000
    50  H          0.03440000       0.05010000       0.63900000
    51  C          0.93945000       0.07496000       0.42425000
    52  C          0.06055000       0.92504000       0.57575000
    53  C          0.87896000       0.12256000       0.49576000
    54  C          0.12104000       0.87744000       0.50424000
    55  H          0.89080000       0.18500000       0.50140000
    56  H          0.10920000       0.81500000       0.49860000
    57  C          0.79866000       0.07866000       0.56105000
    58  C          0.20134000       0.92134000       0.43895000
    59  H          0.75740000       0.11120000       0.61120000
    60  H          0.24260000       0.88880000       0.38880000
    61  S          0.65214150       0.99014860       0.89344150
    62  S          0.34785850       0.00985140       0.10655850
    63  N          0.33656000       0.25566000       0.73145000
    64  N          0.66344000       0.74434000       0.26855000
    65  N          0.97696000       0.86185000       0.14276000
    66  N          0.02304000       0.13815000       0.85724000
    67  C          0.41635000       0.19015000       0.76855000
    68  C          0.58365000       0.80985000       0.23145000
    69  C          0.39255000       0.10255000       0.81635000
    70  C          0.60745000       0.89745000       0.18365000
    71  H          0.32530000       0.08360000       0.82430000
    72  H          0.67470000       0.91640000       0.17570000
    73  C          0.46635000       0.04225000       0.85265000
    74  C          0.53365000       0.95775000       0.14735000
    75  H          0.44980000       0.98200000       0.88380000
    76  H          0.55020000       0.01800000       0.11620000
    77  C          0.56575000       0.07135000       0.84284000
    78  C          0.43425000       0.92865000       0.15716000
    79  C          0.59135000       0.15985000       0.79154000
    80  C          0.40865000       0.84015000       0.20846000
    81  H          0.65910000       0.17840000       0.78180000
    82  H          0.34090000       0.82160000       0.21820000
    83  C          0.51636000       0.21885000       0.75585000
    84  C          0.48364000       0.78115000       0.24415000
    85  H          0.53250000       0.27830000       0.72290000
    86  H          0.46750000       0.72170000       0.27710000
    87  C          0.76305000       0.05495000       0.88265000
    88  C          0.23695000       0.94505000       0.11735000
    89  H          0.81240000       0.05370000       0.82200000
    90  H          0.18760000       0.94630000       0.17800000
    91  H          0.73620000       0.12300000       0.89480000
    92  H          0.26380000       0.87700000       0.10520000
    93  C          0.81995000       0.00385000       0.94975000
    94  C          0.18005000      -0.00385000       0.05025000
    95  C          0.80815000       0.04465000       0.02855000
    96  C          0.19185000       0.95535000       0.97145000
    97  H          0.76490000       0.10520000       0.03880000
    98  H          0.23510000       0.89480000       0.96120000
    99  C          0.85746000      -0.00065000       0.09155000
   100  C          0.14254000       0.00065000       0.90845000
   101  H          0.84810000       0.02850000       0.14380000
   102  H          0.15190000       0.97150000       0.85620000
   103  C          0.92155000       0.90915000       0.07555000
   104  C          0.07845000       0.09085000       0.92445000
   105  C          0.93706000       0.86455000      -0.00165000
   106  C          0.06294000       0.13545000       0.00165000
   107  H          0.98080000       0.80410000       0.98820000
   108  H          0.01920000       0.19590000       0.01180000
   109  C          0.88536000       0.91275000       0.93645000
   110  C          0.11464000       0.08725000       0.06355000
   111  H          0.89450000       0.88360000       0.88420000
   112  H          0.10550000       0.11640000       0.11580000
   113  O          0.04355000       0.79035000       0.12304000
   114  O          0.95645000       0.20965000       0.87696000
   115  O          0.95505000       0.89685000       0.21345000
   116  O          0.04495000       0.10315000       0.78655000
   117  O          0.24815000       0.22595000       0.74525000
   118  O          0.75185000       0.77405000       0.25475000
   119  O          0.35625000       0.33335000       0.69345000
   120  O          0.64375000       0.66665000       0.30655000
   121  S          0.06764190       0.40362170       0.90242000
   122  S          0.93235810       0.59637830       0.09758000
   123  N          0.69214000       0.65876000       0.81065000
   124  N          0.30786000       0.34124000       0.18935000
   125  N          0.54585000       0.28036000       0.98755000
   126  N          0.45415000       0.71964000       0.01245000
   127  O          0.62335000       0.32275000       0.96646000
   128  O          0.37665000       0.67725000       0.03354000
   129  O          0.54305000       0.19945000       0.02714000
   130  O          0.45695000       0.80055000       0.97286000
   131  O          0.61275000       0.61985000       0.81955000
   132  O          0.38725000       0.38015000       0.18045000
   133  O          0.69725000       0.74636000       0.78685000
   134  O          0.30275000       0.25364000       0.21315000
   135  C          0.45056000       0.42266000       0.91686000
   136  C          0.54944000       0.57734000       0.08314000
   137  H          0.51100000       0.45440000       0.90410000
   138  H          0.48900000       0.54560000       0.09590000
   139  C          0.35956000       0.46826000       0.89226000
   140  C          0.64044000       0.53174000       0.10774000
   141  H          0.35920000       0.53170000       0.86360000
   142  H          0.64080000       0.46830000       0.13640000
   143  C          0.78594000       0.59976000       0.83345000
   144  C          0.21406000       0.40024000       0.16655000
   145  C          0.78204000       0.50296000       0.86475000
   146  C          0.21796000       0.49704000       0.13525000
   147  H          0.72010000       0.47490000       0.87220000
   148  H          0.27990000       0.52510000       0.12780000
   149  C          0.87004000       0.44816000       0.88466000
   150  C          0.12996000       0.55184000       0.11534000
   151  H          0.86760000       0.38200000       0.90530000
   152  H          0.13240000       0.61800000       0.09470000
   153  C          0.96245000       0.48705000       0.87535000
   154  C          0.03755000       0.51295000       0.12465000
   155  C          0.96505000       0.58596000       0.84205000
   156  C          0.03495000       0.41404000       0.15795000
   157  H          0.02740000       0.61390000       0.83330000
   158  H          0.97260000       0.38610000       0.16670000
   159  C          0.87564000       0.64225000       0.82215000
   160  C          0.12436000       0.35775000       0.17785000
   161  H          0.87680000       0.70840000       0.80120000
   162  H          0.12320000       0.29160000       0.19880000
   163  C          0.17234000       0.48455000       0.87675000
   164  C          0.82766000       0.51545000       0.12325000
   165  H          0.19590000       0.50430000       0.81250000
   166  H          0.80410000       0.49570000       0.18750000
   167  H          0.14410000       0.54310000       0.90860000
   168  H          0.85590000       0.45690000       0.09140000
   169  C          0.26986000       0.42256000       0.90855000
   170  C          0.73014000       0.57744000       0.09145000
   171  C          0.27345000       0.32685000       0.95125000
   172  C          0.72655000       0.67315000       0.04875000
   173  H          0.21420000       0.29370000       0.96240000
   174  H          0.78580000       0.70630000       0.03760000
   175  C          0.36326000       0.28035000       0.97715000
   176  C          0.63674000       0.71965000       0.02285000
   177  H          0.36460000       0.21660000       0.00530000
   178  H          0.63540000       0.78340000      -0.00530000
   179  C          0.44956000       0.32955000       0.96045000
   180  C          0.55044000       0.67045000       0.03955000
   181  S          0.14782000       0.60031190       0.60072000
   182  S          0.85218000       0.39968810       0.39928000
   183  N          0.80551000       0.34221000       0.66616000
   184  N          0.19449000       0.65779000       0.33384000
   185  N          0.63286000       0.72686000       0.52656000
   186  N          0.36714000       0.27314000       0.47344000
   187  C          0.89413000       0.39998000       0.64705000
   188  C          0.10587000       0.60002000       0.35295000
   189  C          0.87753000       0.49747000       0.62496000
   190  C          0.12247000       0.50253000       0.37504000
   191  H          0.80990000       0.52730000       0.62020000
   192  H          0.19010000       0.47270000       0.37980000
   193  C          0.95693000       0.55246000       0.60946000
   194  C          0.04307000       0.44754000       0.39054000
   195  H          0.94320000       0.61970000       0.59370000
   196  H          0.05680000       0.38030000       0.40630000
   197  C          0.05517000       0.51327000       0.61596000
   198  C          0.94483000       0.48673000       0.38404000
   199  C          0.07717000       0.41118000       0.63746000
   200  C          0.92283000       0.58882000       0.36254000
   201  H          0.14570000       0.38230000       0.64070000
   202  H          0.85430000       0.61770000       0.35930000
   203  C         -0.00469000       0.35396000       0.65335000
   204  C          0.00469000       0.64604000       0.34665000
   205  H          0.00790000       0.28630000       0.66800000
   206  H          0.99210000       0.71370000       0.33200000
   207  C          0.26488000       0.52837000       0.57369000
   208  C          0.73512000       0.47163000       0.42631000
   209  H          0.26340000       0.47110000       0.61720000
   210  H          0.73660000       0.52890000       0.38280000
   211  H          0.27800000       0.50590000       0.51480000
   212  H          0.72200000       0.49410000       0.48520000
   213  C          0.35917000       0.58757000       0.57207000
   214  C          0.64083000       0.41243000       0.42793000
   215  C          0.37347000       0.67227000       0.51117000
   216  C          0.62653000       0.32773000       0.48883000
   217  H          0.32350000       0.69640000       0.47930000
   218  H          0.67650000       0.30360000       0.52070000
   219  C          0.46317000       0.71986000       0.49856000
   220  C          0.53683000       0.28014000       0.50144000
   221  H          0.47290000       0.77710000       0.45990000
   222  H          0.52710000       0.22290000       0.54010000
   223  C          0.53456000       0.68106000       0.54356000
   224  C          0.46544000       0.31894000       0.45644000
   225  C          0.52107000       0.60166000       0.60506000
   226  C          0.47893000       0.39834000       0.39494000
   227  H          0.57030000       0.57800000       0.63740000
   228  H          0.42970000       0.42200000       0.36260000
   229  C          0.43168000       0.55807000       0.61717000
   230  C          0.56832000       0.44193000       0.38283000
   231  H          0.42060000       0.50400000       0.65980000
   232  H          0.57940000       0.49600000       0.34020000
   233  O          0.71533000       0.38528000       0.67107000
   234  O          0.28467000       0.61472000       0.32893000
   235  O          0.82862000       0.25168000       0.67586000
   236  O          0.17138000       0.74832000       0.32414000
   237  O          0.64466000       0.79946000       0.47126000
   238  O          0.35534000       0.20054000       0.52874000
   239  O          0.69676000       0.69276000       0.56786000
   240  O          0.30324000       0.30724000       0.43214000
