data_KOPDAW
_symmetry_space_group_name_H-M    'P1'
_symmetry_Int_Tables_number       1
loop_
_symmetry_equiv_pos_site_id
_symmetry_equiv_pos_as_xyz
1 x,y,z
_cell_length_a                   24.42126
_cell_length_b                   8.31612
_cell_length_c                   13.29734
_cell_angle_alpha                90.0
_cell_angle_beta                 92.3412
_cell_angle_gamma                90.0
loop_
_atom_site_label
_atom_site_type_symbol
_atom_site_fract_x
_atom_site_fract_y
_atom_site_fract_z
     1  S          0.62530200       0.21458800       0.66261500
     2  S          0.37469800       0.21458800       0.83738500
     3  S          0.12530200       0.71458800       0.66261500
     4  S          0.87469800       0.71458800       0.83738500
     5  S          0.37469800       0.78541200       0.33738500
     6  S          0.62530200       0.78541200       0.16261500
     7  S          0.87469800       0.28541200       0.33738500
     8  S          0.12530200       0.28541200       0.16261500
     9  O          0.36015100       0.22333000       0.53937180
    10  O          0.63984900       0.22333000       0.96062820
    11  O          0.86015100       0.72333000       0.53937180
    12  O          0.13984900       0.72333000       0.96062820
    13  O          0.63984900       0.77667000       0.46062820
    14  O          0.36015100       0.77667000       0.03937180
    15  O          0.13984900       0.27667000       0.46062820
    16  O          0.86015100       0.27667000       0.03937180
    17  O          0.37030800       0.47443000       0.56949180
    18  O          0.62969200       0.47443000       0.93050820
    19  O          0.87030800       0.97443000       0.56949180
    20  O          0.12969200       0.97443000       0.93050820
    21  O          0.62969200       0.52557000       0.43050820
    22  O          0.37030800       0.52557000       0.06949180
    23  O          0.12969200       0.02557000       0.43050820
    24  O          0.87030800       0.02557000       0.06949180
    25  O          0.90814800       0.27823000       0.80863000
    26  O          0.09185200       0.27823000       0.69137000
    27  O          0.40814800       0.77823000       0.80863000
    28  O          0.59185200       0.77823000       0.69137000
    29  O          0.09185200       0.72177000       0.19137000
    30  O          0.90814800       0.72177000       0.30863000
    31  O          0.59185200       0.22177000       0.19137000
    32  O          0.40814800       0.22177000       0.30863000
    33  O          0.91621100       0.31813000       0.64973000
    34  O          0.08378900       0.31813000       0.85027000
    35  O          0.41621100       0.81813000       0.64973000
    36  O          0.58378900       0.81813000       0.85027000
    37  O          0.08378900       0.68187000       0.35027000
    38  O          0.91621100       0.68187000       0.14973000
    39  O          0.58378900       0.18187000       0.35027000
    40  O          0.41621100       0.18187000       0.14973000
    41  N          0.38832900       0.33914000       0.56381160
    42  N          0.61167100       0.33914000       0.93618840
    43  N          0.88832900       0.83914000       0.56381160
    44  N          0.11167100       0.83914000       0.93618840
    45  N          0.61167100       0.66086000       0.43618840
    46  N          0.38832900       0.66086000       0.06381160
    47  N          0.11167100       0.16086000       0.43618840
    48  N          0.88832900       0.16086000       0.06381160
    49  N          0.88889100       0.30803000       0.72494000
    50  N          0.11110900       0.30803000       0.77506000
    51  N          0.38889100       0.80803000       0.72494000
    52  N          0.61110900       0.80803000       0.77506000
    53  N          0.11110900       0.69197000       0.27506000
    54  N          0.88889100       0.69197000       0.22494000
    55  N          0.61110900       0.19197000       0.27506000
    56  N          0.38889100       0.19197000       0.22494000
    57  C          0.44696900       0.31214000       0.58956160
    58  C          0.55303100       0.31214000       0.91043840
    59  C          0.94696900       0.81214000       0.58956160
    60  C          0.05303100       0.81214000       0.91043840
    61  C          0.55303100       0.68786000       0.41043840
    62  C          0.44696900       0.68786000       0.08956160
    63  C          0.05303100       0.18786000       0.41043840
    64  C          0.94696900       0.18786000       0.08956160
    65  C          0.46655110       0.15984000       0.59032000
    66  C          0.53344890       0.15984000       0.90968000
    67  C          0.96655110       0.65984000       0.59032000
    68  C          0.03344890       0.65984000       0.90968000
    69  C          0.53344890       0.84016000       0.40968000
    70  C          0.46655110       0.84016000       0.09032000
    71  C          0.03344890       0.34016000       0.40968000
    72  C          0.96655110       0.34016000       0.09032000
    73  H          0.44330000       0.07370000       0.57530000
    74  H          0.55670000       0.07370000       0.92470000
    75  H          0.94330000       0.57370000       0.57530000
    76  H          0.05670000       0.57370000       0.92470000
    77  H          0.55670000       0.92630000       0.42470000
    78  H          0.44330000       0.92630000       0.07530000
    79  H          0.05670000       0.42630000       0.42470000
    80  H          0.94330000       0.42630000       0.07530000
    81  C          0.52145110       0.13403000       0.61372000
    82  C          0.47854890       0.13403000       0.88628000
    83  C          0.02145110       0.63403000       0.61372000
    84  C          0.97854890       0.63403000       0.88628000
    85  C          0.47854890       0.86597000       0.38628000
    86  C          0.52145110       0.86597000       0.11372000
    87  C          0.97854890       0.36597000       0.38628000
    88  C          0.02145110       0.36597000       0.11372000
    89  H          0.53510000       0.02960000       0.61520000
    90  H          0.46490000       0.02960000       0.88480000
    91  H          0.03510000       0.52960000       0.61520000
    92  H          0.96490000       0.52960000       0.88480000
    93  H          0.46490000       0.97040000       0.38480000
    94  H          0.53510000       0.97040000       0.11520000
    95  H          0.96490000       0.47040000       0.38480000
    96  H          0.03510000       0.47040000       0.11520000
    97  C          0.55639900       0.26193000       0.63506160
    98  C          0.44360100       0.26193000       0.86493840
    99  C          0.05639900       0.76193000       0.63506160
   100  C          0.94360100       0.76193000       0.86493840
   101  C          0.44360100       0.73807000       0.36493840
   102  C          0.55639900       0.73807000       0.13506160
   103  C          0.94360100       0.23807000       0.36493840
   104  C          0.05639900       0.23807000       0.13506160
   105  C          0.53476900       0.41593000       0.63381150
   106  C          0.46523100       0.41593000       0.86618850
   107  C          0.03476900       0.91593000       0.63381150
   108  C          0.96523100       0.91593000       0.86618850
   109  C          0.46523100       0.58407000       0.36618850
   110  C          0.53476900       0.58407000       0.13381150
   111  C          0.96523100       0.08407000       0.36618850
   112  C          0.03476900       0.08407000       0.13381150
   113  H          0.55750000       0.50330000       0.64820000
   114  H          0.44250000       0.50330000       0.85180000
   115  H          0.05750000       0.00330000       0.64820000
   116  H          0.94250000       0.00330000       0.85180000
   117  H          0.44250000       0.49670000       0.35180000
   118  H          0.55750000       0.49670000       0.14820000
   119  H          0.94250000      -0.00330000       0.35180000
   120  H          0.05750000      -0.00330000       0.14820000
   121  C          0.47986900       0.44033000       0.61148160
   122  C          0.52013100       0.44033000       0.88851840
   123  C          0.97986900       0.94033000       0.61148160
   124  C          0.02013100       0.94033000       0.88851840
   125  C          0.52013100       0.55967000       0.38851840
   126  C          0.47986900       0.55967000       0.11148160
   127  C          0.02013100       0.05967000       0.38851840
   128  C          0.97986900       0.05967000       0.11148160
   129  H          0.46540000       0.54370000       0.61140000
   130  H          0.53460000       0.54370000       0.88860000
   131  H          0.96540000       0.04370000       0.61140000
   132  H          0.03460000       0.04370000       0.88860000
   133  H          0.53460000       0.45630000       0.38860000
   134  H          0.46540000       0.45630000       0.11140000
   135  H          0.03460000       0.95630000       0.38860000
   136  H          0.96540000       0.95630000       0.11140000
   137  C          0.65790900       0.40753000       0.67762190
   138  C          0.34209100       0.40753000       0.82237810
   139  C          0.15790900       0.90753000       0.67762190
   140  C          0.84209100       0.90753000       0.82237810
   141  C          0.34209100       0.59247000       0.32237810
   142  C          0.65790900       0.59247000       0.17762190
   143  C          0.84209100       0.09247000       0.32237810
   144  C          0.15790900       0.09247000       0.17762190
   145  H          0.64960000       0.47400000       0.61900000
   146  H          0.35040000       0.47400000       0.88100000
   147  H          0.14960000       0.97400000       0.61900000
   148  H          0.85040000       0.97400000       0.88100000
   149  H          0.35040000       0.52600000       0.38100000
   150  H          0.64960000       0.52600000       0.11900000
   151  H          0.85040000       0.02600000       0.38100000
   152  H          0.14960000       0.02600000       0.11900000
   153  H          0.64460000       0.46180000       0.73640000
   154  H          0.35540000       0.46180000       0.76360000
   155  H          0.14460000       0.96180000       0.73640000
   156  H          0.85540000       0.96180000       0.76360000
   157  H          0.35540000       0.53820000       0.26360000
   158  H          0.64460000       0.53820000       0.23640000
   159  H          0.85540000       0.03820000       0.26360000
   160  H          0.14460000       0.03820000       0.23640000
   161  C          0.71892900       0.38163000       0.68993180
   162  C          0.28107100       0.38163000       0.81006820
   163  C          0.21892900       0.88163000       0.68993180
   164  C          0.78107100       0.88163000       0.81006820
   165  C          0.28107100       0.61837000       0.31006820
   166  C          0.71892900       0.61837000       0.18993180
   167  C          0.78107100       0.11837000       0.31006820
   168  C          0.21892900       0.11837000       0.18993180
   169  C          0.74292900       0.34893000       0.78267190
   170  C          0.25707100       0.34893000       0.71732810
   171  C          0.24292900       0.84893000       0.78267190
   172  C          0.75707100       0.84893000       0.71732810
   173  C          0.25707100       0.65107000       0.21732810
   174  C          0.74292900       0.65107000       0.28267190
   175  C          0.75707100       0.15107000       0.21732810
   176  C          0.24292900       0.15107000       0.28267190
   177  H          0.72130000       0.34270000       0.83860000
   178  H          0.27870000       0.34270000       0.66140000
   179  H          0.22130000       0.84270000       0.83860000
   180  H          0.77870000       0.84270000       0.66140000
   181  H          0.27870000       0.65730000       0.16140000
   182  H          0.72130000       0.65730000       0.33860000
   183  H          0.77870000       0.15730000       0.16140000
   184  H          0.22130000       0.15730000       0.33860000
   185  C          0.79887110       0.32503000       0.79402000
   186  C          0.20112890       0.32503000       0.70598000
   187  C          0.29887110       0.82503000       0.79402000
   188  C          0.70112890       0.82503000       0.70598000
   189  C          0.20112890       0.67497000       0.20598000
   190  C          0.79887110       0.67497000       0.29402000
   191  C          0.70112890       0.17497000       0.20598000
   192  C          0.29887110       0.17497000       0.29402000
   193  H          0.81520000       0.30330000       0.85700000
   194  H          0.18480000       0.30330000       0.64300000
   195  H          0.31520000       0.80330000       0.85700000
   196  H          0.68480000       0.80330000       0.64300000
   197  H          0.18480000       0.69670000       0.14300000
   198  H          0.81520000       0.69670000       0.35700000
   199  H          0.68480000       0.19670000       0.14300000
   200  H          0.31520000       0.19670000       0.35700000
   201  C          0.82949900       0.33403000       0.71143000
   202  C          0.17050100       0.33403000       0.78857000
   203  C          0.32949900       0.83403000       0.71143000
   204  C          0.67050100       0.83403000       0.78857000
   205  C          0.17050100       0.66597000       0.28857000
   206  C          0.82949900       0.66597000       0.21143000
   207  C          0.67050100       0.16597000       0.28857000
   208  C          0.32949900       0.16597000       0.21143000
   209  C          0.80733110       0.36703000       0.61792000
   210  C          0.19266890       0.36703000       0.88208000
   211  C          0.30733110       0.86703000       0.61792000
   212  C          0.69266890       0.86703000       0.88208000
   213  C          0.19266890       0.63297000       0.38208000
   214  C          0.80733110       0.63297000       0.11792000
   215  C          0.69266890       0.13297000       0.38208000
   216  C          0.30733110       0.13297000       0.11792000
   217  H          0.82920000       0.37340000       0.56240000
   218  H          0.17080000       0.37340000       0.93760000
   219  H          0.32920000       0.87340000       0.56240000
   220  H          0.67080000       0.87340000       0.93760000
   221  H          0.17080000       0.62660000       0.43760000
   222  H          0.82920000       0.62660000       0.06240000
   223  H          0.67080000       0.12660000       0.43760000
   224  H          0.32920000       0.12660000       0.06240000
   225  C          0.75123100       0.39063000       0.60812000
   226  C          0.24876900       0.39063000       0.89188000
   227  C          0.25123100       0.89063000       0.60812000
   228  C          0.74876900       0.89063000       0.89188000
   229  C          0.24876900       0.60937000       0.39188000
   230  C          0.75123100       0.60937000       0.10812000
   231  C          0.74876900       0.10937000       0.39188000
   232  C          0.25123100       0.10937000       0.10812000
   233  H          0.73520000       0.41300000       0.54500000
   234  H          0.26480000       0.41300000       0.95500000
   235  H          0.23520000       0.91300000       0.54500000
   236  H          0.76480000       0.91300000       0.95500000
   237  H          0.26480000       0.58700000       0.45500000
   238  H          0.73520000       0.58700000       0.04500000
   239  H          0.76480000       0.08700000       0.45500000
   240  H          0.23520000       0.08700000       0.04500000
