data_KOSSIY04
_symmetry_space_group_name_H-M    'P1'
_symmetry_Int_Tables_number       1
loop_
_symmetry_equiv_pos_site_id
_symmetry_equiv_pos_as_xyz
1 x,y,z
_cell_length_a                   10.5063
_cell_length_b                   10.6213
_cell_length_c                   16.9854
_cell_angle_alpha                79.24919
_cell_angle_beta                 80.65019
_cell_angle_gamma                63.27218
loop_
_atom_site_label
_atom_site_type_symbol
_atom_site_fract_x
_atom_site_fract_y
_atom_site_fract_z
     1  O          0.19635130       0.21767130       0.33362700
     2  O          0.80364870       0.78232870       0.66637300
     3  H          0.14420000       0.31220000       0.32011100
     4  H          0.85580000       0.68780000       0.67988900
     5  O          0.18333140       0.94828880       0.03313700
     6  O          0.81666860       0.05171120       0.96686300
     7  N          0.28378150       0.74929860       0.12049900
     8  N          0.71621850       0.25070140       0.87950100
     9  H          0.32320000       0.70458100       0.16411200
    10  H          0.67680000       0.29541900       0.83588800
    11  N          0.28170140       0.66063860       0.07211800
    12  N          0.71829860       0.33936140       0.92788200
    13  C          0.20065160       0.14371160       0.27551900
    14  C          0.79934840       0.85628840       0.72448100
    15  C          0.14009190       0.20672170       0.20325100
    16  C          0.85990810       0.79327830       0.79674900
    17  H          0.09072900       0.30725000       0.19242800
    18  H          0.90927100       0.69275000       0.80757200
    19  C          0.15206180       0.12216160       0.14706100
    20  C          0.84793820       0.87783840       0.85293900
    21  H          0.11077400       0.16581000       0.09755000
    22  H          0.88922600       0.83419000       0.90245000
    23  C          0.22294160       0.97515840       0.16131900
    24  C          0.77705840       0.02484160       0.83868100
    25  C          0.28268190       0.91420830       0.23414110
    26  C          0.71731810       0.08579170       0.76585890
    27  H          0.33234500       0.81372500       0.24513400
    28  H          0.66765500       0.18627500       0.75486600
    29  C          0.27088190      -0.00270170       0.29046100
    30  C          0.72911810       0.00270170       0.70953900
    31  H          0.31140900       0.95365300       0.34017200
    32  H          0.68859100       0.04634700       0.65982800
    33  C          0.22741160       0.89193840       0.09926100
    34  C          0.77258840       0.10806160       0.90073900
    35  C          0.35006170       0.52577830       0.09585100
    36  C          0.64993830       0.47422170       0.90414900
    37  C          0.33768180       0.42773820       0.04954100
    38  C          0.66231820       0.57226180       0.95045900
    39  C          0.21832000       0.47108000       0.00762120
    40  C          0.78168000       0.52892000      -0.00762120
    41  H          0.14283000       0.56401100       0.00936600
    42  H          0.85717000       0.43598900       0.99063400
    43  C          0.20992000       0.37847000       0.96346860
    44  C          0.79008000       0.62153000       0.03653140
    45  H          0.12826300       0.40834400       0.93501100
    46  H          0.87173700       0.59165600       0.06498900
    47  C          0.31823000       0.24367000       0.96023860
    48  C          0.68177000       0.75633000       0.03976140
    49  H          0.31163800       0.18110300       0.92950700
    50  H          0.68836200       0.81889700       0.07049300
    51  C          0.43592000       0.20008000       0.00163130
    52  C          0.56408000       0.79992000      -0.00163130
    53  H          0.51129200       0.10739100      -0.00095300
    54  H          0.48870800       0.89260900       0.00095300
    55  C          0.44532000       0.29057820       0.04714110
    56  C          0.55468000       0.70942180       0.95285890
    57  H          0.52587200       0.25862400       0.07686500
    58  H          0.47412800       0.74137600       0.92313500
    59  C          0.43737180       0.46683840       0.16609100
    60  C          0.56262820       0.53316160       0.83390900
    61  C          0.55388190       0.49480810       0.16689110
    62  C          0.44611810       0.50519190       0.83310890
    63  H          0.57869800       0.55042100       0.12207900
    64  H          0.42130200       0.44957900       0.87792100
    65  C          0.63412000       0.44248000       0.23223120
    66  C          0.36588000       0.55752000       0.76776880
    67  H          0.71481200       0.46091600       0.23169400
    68  H          0.28518800       0.53908400       0.76830600
    69  C          0.59813000       0.36438000       0.29782120
    70  C          0.40187000       0.63562000       0.70217880
    71  H          0.65228800       0.33027600       0.34322100
    72  H          0.34771200       0.66972400       0.65677900
    73  C          0.48263000       0.33538000       0.29757120
    74  C          0.51737000       0.66462000       0.70242880
    75  H          0.45769800       0.28083500       0.34294100
    76  H          0.54230200       0.71916500       0.65705900
    77  C          0.40302000       0.38496810       0.23194110
    78  C          0.59698000       0.61503190       0.76805890
    79  H          0.32479000       0.36304000       0.23188300
    80  H          0.67521000       0.63696000       0.76811700
    81  O          0.82415860       0.12441120       0.11005800
    82  O          0.17584140       0.87558880       0.88994200
    83  H          0.82480000       0.11220000       0.05921300
    84  H          0.17520000       0.88780000       0.94078700
    85  O          0.03970130       0.49317890       0.28770700
    86  O          0.96029870       0.50682110       0.71229300
    87  N          0.09798150       0.59313860       0.37432800
    88  N          0.90201850       0.40686140       0.62567200
    89  H          0.10071900       0.67180000       0.38401100
    90  H          0.89928100       0.32820000       0.61598900
    91  N          0.15421140       0.46846870       0.42538800
    92  N          0.84578860       0.53153130       0.57461200
    93  C          0.87443830      -0.00291160       0.15645100
    94  C          0.12556170       0.00291160       0.84354900
    95  C          0.91157830       0.86940830       0.12777100
    96  C          0.08842170       0.13059170       0.87222900
    97  H          0.90130500       0.86935000       0.07323600
    98  H          0.09869500       0.13065000       0.92676400
    99  C          0.96316830       0.74322830       0.17829100
   100  C          0.03683170       0.25677170       0.82170900
   101  H          0.98640100       0.65690500       0.15835100
   102  H          0.01359900       0.34309500       0.84164900
   103  C          0.98188840       0.73980840       0.25797900
   104  C          0.01811160       0.26019160       0.74202100
   105  C          0.94449830       0.86831830       0.28617100
   106  C          0.05550170       0.13168170       0.71382900
   107  H          0.95637300       0.86815000       0.34046600
   108  H          0.04362700       0.13185000       0.65953400
   109  C          0.89064820      -0.00456170       0.23650100
   110  C          0.10935180       0.00456170       0.76349900
   111  H          0.86453000       0.08209800       0.25684500
   112  H          0.13547000       0.91790200       0.74315500
   113  C          0.04028160       0.59915840       0.30703900
   114  C          0.95971840       0.40084160       0.69296100
   115  C          0.20957160       0.47466840       0.48610900
   116  C          0.79042840       0.52533160       0.51389100
   117  C          0.27353160       0.34353840       0.54303900
   118  C          0.72646840       0.65646160       0.45696100
   119  C          0.30744170       0.21024830       0.52230100
   120  C          0.69255830       0.78975170       0.47769900
   121  H          0.28912300       0.20233300       0.47091000
   122  H          0.71087700       0.79766700       0.52909000
   123  C          0.36786180       0.08944820       0.57674120
   124  C          0.63213820       0.91055180       0.42325880
   125  H          0.39186500      -0.00117900       0.56210300
   126  H          0.60813500       0.00117900       0.43789700
   127  C          0.39358190       0.09924810       0.65199120
   128  C          0.60641810       0.90075190       0.34800880
   129  H          0.43384100       0.01598300       0.68920500
   130  H          0.56615900       0.98401700       0.31079500
   131  C          0.36041190       0.23091810       0.67286110
   132  C          0.63958810       0.76908190       0.32713890
   133  H          0.37821700       0.23813900       0.72453400
   134  H          0.62178300       0.76186100       0.27546600
   135  C          0.30134170       0.35232830       0.61877100
   136  C          0.69865830       0.64767170       0.38122900
   137  H          0.27957700       0.44237900       0.63341300
   138  H          0.72042300       0.55762100       0.36658700
   139  C          0.20974160       0.60902850       0.50131900
   140  C          0.79025840       0.39097150       0.49868100
   141  C          0.32501170       0.64051830       0.47234100
   142  C          0.67498830       0.35948170       0.52765900
   143  H          0.40611300       0.57548200       0.44361700
   144  H          0.59388700       0.42451800       0.55638300
   145  C          0.32134180       0.76738820       0.48550100
   146  C          0.67865820       0.23261180       0.51449900
   147  H          0.40036700       0.78874100       0.46597800
   148  H          0.59963300       0.21125900       0.53402200
   149  C          0.20335190       0.86257830       0.52684110
   150  C          0.79664810       0.13742170       0.47315890
   151  H          0.20112200       0.94947300       0.53536600
   152  H          0.79887800       0.05052700       0.46463400
   153  C          0.08882180       0.83172830       0.55575110
   154  C          0.91117820       0.16827170       0.44424890
   155  H          0.00799800       0.89697700       0.58453300
   156  H          0.99200200       0.10302300       0.41546700
   157  C          0.09161170       0.70527840       0.54278100
   158  C          0.90838830       0.29472160       0.45721900
   159  H          0.01224300       0.68452600       0.56239300
   160  H          0.98775700       0.31547400       0.43760700
