data_KOSSIY05
_symmetry_space_group_name_H-M    'P1'
_symmetry_Int_Tables_number       1
loop_
_symmetry_equiv_pos_site_id
_symmetry_equiv_pos_as_xyz
1 x,y,z
_cell_length_a                   10.148018
_cell_length_b                   11.1923
_cell_length_c                   14.8112
_cell_angle_alpha                90.0
_cell_angle_beta                 109.33712
_cell_angle_gamma                90.0
loop_
_atom_site_label
_atom_site_type_symbol
_atom_site_fract_x
_atom_site_fract_y
_atom_site_fract_z
     1  C          0.63730160       0.61750860       0.73467110
     2  C          0.36269840       0.11750860       0.76532890
     3  C          0.36269840       0.38249140       0.26532890
     4  C          0.63730160       0.88249140       0.23467110
     5  C          0.67732000       0.59642850       0.83218110
     6  C          0.32268000       0.09642850       0.66781890
     7  C          0.32268000       0.40357150       0.16781890
     8  C          0.67732000       0.90357150       0.33218110
     9  H          0.70173500       0.51957400       0.85559800
    10  H          0.29826500       0.01957400       0.64440200
    11  H          0.29826500       0.48042600       0.14440200
    12  H          0.70173500       0.98042600       0.35559800
    13  C          0.68098190       0.68773850       0.89427110
    14  C          0.31901810       0.18773850       0.60572890
    15  C          0.31901810       0.31226150       0.10572890
    16  C          0.68098190       0.81226150       0.39427110
    17  H          0.70639200       0.67184000       0.95943900
    18  H          0.29360800       0.17184000       0.54056100
    19  H          0.29360800       0.32816000       0.04056100
    20  H          0.70639200       0.82816000       0.45943900
    21  C          0.64758160       0.80340860       0.86181100
    22  C          0.35241840       0.30340860       0.63818900
    23  C          0.35241840       0.19659140       0.13818900
    24  C          0.64758160       0.69659140       0.36181100
    25  C          0.60698170       0.82352850       0.76418110
    26  C          0.39301830       0.32352850       0.73581890
    27  C          0.39301830       0.17647150       0.23581890
    28  C          0.60698170       0.67647150       0.26418110
    29  H          0.58307200       0.90047200       0.74078500
    30  H          0.41692800       0.40047200       0.75921500
    31  H          0.41692800       0.09952800       0.25921500
    32  H          0.58307200       0.59952800       0.24078500
    33  C          0.60133180       0.73192850       0.70117110
    34  C          0.39866820       0.23192850       0.79882890
    35  C          0.39866820       0.26807150       0.29882890
    36  C          0.60133180       0.76807150       0.20117110
    37  H          0.57319500       0.74720700       0.63580200
    38  H          0.42680500       0.24720700       0.86419800
    39  H          0.42680500       0.25279300       0.36419800
    40  H          0.57319500       0.75279300       0.13580200
    41  C          0.65538160       0.89873860       0.93281100
    42  C          0.34461840       0.39873860       0.56718900
    43  C          0.34461840       0.10126140       0.06718900
    44  C          0.65538160       0.60126140       0.43281100
    45  C          0.77333160       0.19485140       0.95554100
    46  C          0.22666840       0.69485140       0.54445900
    47  C          0.22666840       0.80514860       0.04445900
    48  C          0.77333160       0.30514860       0.45554100
    49  C          0.77024170       0.30237140       0.01224110
    50  C          0.22975830       0.80237140       0.48775890
    51  C          0.22975830       0.69762860       0.98775890
    52  C          0.77024170       0.19762860       0.51224110
    53  C          0.66010180       0.32461160       0.04553120
    54  C          0.33989820       0.82461160       0.45446880
    55  C          0.33989820       0.67538840       0.95446880
    56  C          0.66010180       0.17538840       0.54553120
    57  H          0.58541500       0.27162400       0.03152200
    58  H          0.41458500       0.77162400       0.46847800
    59  H          0.41458500       0.72837600       0.96847800
    60  H          0.58541500       0.22837600       0.53152200
    61  C          0.66122000       0.42503180       0.09929140
    62  C          0.33878000       0.92503180       0.40070860
    63  C          0.33878000       0.57496820       0.90070860
    64  C          0.66122000       0.07496820       0.59929140
    65  H          0.58628500       0.44016300       0.12058300
    66  H          0.41371500       0.94016300       0.37941700
    67  H          0.41371500       0.55983700       0.87941700
    68  H          0.58628500       0.05983700       0.62058300
    69  C          0.77162000       0.50317170       0.12188130
    70  C          0.22838000       0.00317170       0.37811870
    71  C          0.22838000       0.49682830       0.87811870
    72  C          0.77162000      -0.00317170       0.62188130
    73  H          0.77172100       0.57044100       0.15877100
    74  H          0.22827900       0.07044100       0.34122900
    75  H          0.22827900       0.42955900       0.84122900
    76  H          0.77172100       0.92955900       0.65877100
    77  C          0.88092000       0.48193160       0.09012130
    78  C          0.11908000       0.98193160       0.40987870
    79  C          0.11908000       0.51806840       0.90987870
    80  C          0.88092000       0.01806840       0.59012130
    81  H          0.95630200       0.53432000       0.10606600
    82  H          0.04369800       0.03432000       0.39393400
    83  H          0.04369800       0.46568000       0.89393400
    84  H          0.95630200       0.96568000       0.60606600
    85  C          0.88039190       0.38317150       0.03447120
    86  C          0.11960810       0.88317150       0.46552880
    87  C          0.11960810       0.61682850       0.96552880
    88  C          0.88039190       0.11682850       0.53447120
    89  H          0.95426500       0.37046800       0.01160600
    90  H          0.04573500       0.87046800       0.48839400
    91  H          0.04573500       0.62953200       0.98839400
    92  H          0.95426500       0.12953200       0.51160600
    93  C          0.84946160       0.20242140       0.88575110
    94  C          0.15053840       0.70242140       0.61424890
    95  C          0.15053840       0.79757860       0.11424890
    96  C          0.84946160       0.29757860       0.38575110
    97  C          0.80305190       0.27763150       0.80746110
    98  C          0.19694810       0.77763150       0.69253890
    99  C          0.19694810       0.72236850       0.19253890
   100  C          0.80305190       0.22236850       0.30746110
   101  H          0.71925400       0.31854300       0.79566800
   102  H          0.28074600       0.81854300       0.70433200
   103  H          0.28074600       0.68145700       0.20433200
   104  H          0.71925400       0.18145700       0.29566800
   105  C          0.87922000       0.29269170       0.74684120
   106  C          0.12078000       0.79269170       0.75315880
   107  C          0.12078000       0.70730830       0.25315880
   108  C          0.87922000       0.20730830       0.24684120
   109  H          0.84713700       0.34411900       0.69480400
   110  H          0.15286300       0.84411900       0.80519600
   111  H          0.15286300       0.65588100       0.30519600
   112  H          0.84713700       0.15588100       0.19480400
   113  C          0.00142000       0.23242000       0.76287140
   114  C         -0.00142000       0.73242000       0.73712860
   115  C         -0.00142000       0.76758000       0.23712860
   116  C          0.00142000       0.26758000       0.26287140
   117  H          0.05312000       0.24318300       0.72209400
   118  H          0.94688000       0.74318300       0.77790600
   119  H          0.94688000       0.75681700       0.27790600
   120  H          0.05312000       0.25681700       0.22209400
   121  C          0.04812000       0.15592000       0.83906160
   122  C          0.95188000       0.65592000       0.66093840
   123  C          0.95188000       0.84408000       0.16093840
   124  C          0.04812000       0.34408000       0.33906160
   125  H          0.13089400       0.11397500       0.84929200
   126  H          0.86910600       0.61397500       0.65070800
   127  H          0.86910600       0.88602500       0.15070800
   128  H          0.13089400       0.38602500       0.34929200
   129  C          0.97334190       0.14090180       0.90043140
   130  C          0.02665810       0.64090180       0.59956860
   131  C          0.02665810       0.85909820       0.09956860
   132  C          0.97334190       0.35909820       0.40043140
   133  H          0.00606300       0.08910400       0.95216300
   134  H         -0.00606300       0.58910400       0.54783700
   135  H         -0.00606300       0.91089600       0.04783700
   136  H          0.00606300       0.41089600       0.45216300
   137  N          0.70625140       0.00430120       0.91435100
   138  N          0.29374860       0.50430120       0.58564900
   139  N          0.29374860      -0.00430120       0.08564900
   140  N          0.70625140       0.49569880       0.41435100
   141  H          0.73851800       0.01251600       0.86521300
   142  H          0.26148200       0.51251600       0.63478700
   143  H          0.26148200       0.98748400       0.13478700
   144  H          0.73851800       0.48748400       0.36521300
   145  N          0.70986140       0.10195120       0.97148900
   146  N          0.29013860       0.60195120       0.52851100
   147  N          0.29013860       0.89804880       0.02851100
   148  N          0.70986140       0.39804880       0.47148900
   149  O          0.63555130       0.52338900       0.67701900
   150  O          0.36444870       0.02338900       0.82298100
   151  O          0.36444870       0.47661100       0.32298100
   152  O          0.63555130       0.97661100       0.17701900
   153  H          0.62181900       0.55038300       0.61751400
   154  H          0.37818100       0.05038300       0.88248600
   155  H          0.37818100       0.44961700       0.38248600
   156  H          0.62181900       0.94961700       0.11751400
   157  O          0.62310130       0.88111900       0.00417800
   158  O          0.37689870       0.38111900       0.49582200
   159  O          0.37689870       0.11888100      -0.00417800
   160  O          0.62310130       0.61888100       0.50417800
