data_KOSSIY01
_symmetry_space_group_name_H-M    'P1'
_symmetry_Int_Tables_number       1
loop_
_symmetry_equiv_pos_site_id
_symmetry_equiv_pos_as_xyz
1 x,y,z
_cell_length_a                   9.7894
_cell_length_b                   14.3845
_cell_length_c                   13.7755
_cell_angle_alpha                90.0
_cell_angle_beta                 117.2133
_cell_angle_gamma                90.0
loop_
_atom_site_label
_atom_site_type_symbol
_atom_site_fract_x
_atom_site_fract_y
_atom_site_fract_z
     1  O          0.91725000       0.75912000       0.83154000
     2  O          0.08275000       0.25912000       0.66846000
     3  O          0.08275000       0.24088000       0.16846000
     4  O          0.91725000       0.74088000       0.33154000
     5  H          0.94136400       0.77907400       0.78575100
     6  H          0.05863600       0.27907400       0.71424900
     7  H          0.05863600       0.22092600       0.21424900
     8  H          0.94136400       0.72092600       0.28575100
     9  O          0.95086000       0.32623000       0.78265000
    10  O          0.04914000       0.82623000       0.71735000
    11  O          0.04914000       0.67377000       0.21735000
    12  O          0.95086000       0.17377000       0.28265000
    13  N          0.79245000       0.32893000       0.85684000
    14  N          0.20755000       0.82893000       0.64316000
    15  N          0.20755000       0.67107000       0.14316000
    16  N          0.79245000       0.17107000       0.35684000
    17  H          0.74244400       0.36212600       0.88174500
    18  H          0.25755600       0.86212600       0.61825500
    19  H          0.25755600       0.63787400       0.11825500
    20  H          0.74244400       0.13787400       0.38174500
    21  N          0.78166000       0.23473000       0.85704000
    22  N          0.21834000       0.73473000       0.64296000
    23  N          0.21834000       0.76527000       0.14296000
    24  N          0.78166000       0.26527000       0.35704000
    25  C          0.90526000       0.66574000       0.82385000
    26  C          0.09474000       0.16574000       0.67615000
    27  C          0.09474000       0.33426000       0.17615000
    28  C          0.90526000       0.83426000       0.32385000
    29  C          0.95408000       0.61404000       0.76335000
    30  C          0.04592000       0.11404000       0.73665000
    31  C          0.04592000       0.38596000       0.23665000
    32  C          0.95408000       0.88596000       0.26335000
    33  H         -0.00624000       0.64328600       0.72155300
    34  H          0.00624000       0.14328600       0.77844700
    35  H          0.00624000       0.35671400       0.27844700
    36  H         -0.00624000       0.85671400       0.22155300
    37  C          0.94518000       0.52034000       0.76325000
    38  C          0.05482000       0.02034000       0.73675000
    39  C          0.05482000       0.47966000       0.23675000
    40  C          0.94518000       0.97966000       0.26325000
    41  H         -0.01703400       0.48647600       0.72322300
    42  H          0.01703400       0.98647600       0.77677700
    43  H          0.01703400       0.51352400       0.27677700
    44  H         -0.01703400       0.01352400       0.22322300
    45  C          0.88295000       0.47343000       0.81954000
    46  C          0.11705000       0.97343000       0.68046000
    47  C          0.11705000       0.52657000       0.18046000
    48  C          0.88295000       0.02657000       0.31954000
    49  C          0.83557000       0.52644000       0.88165000
    50  C          0.16443000       0.02644000       0.61835000
    51  C          0.16443000       0.47356000       0.11835000
    52  C          0.83557000       0.97356000       0.38165000
    53  H          0.79502200       0.49703500       0.92288100
    54  H          0.20497800      -0.00296500       0.57711900
    55  H          0.20497800       0.50296500       0.07711900
    56  H          0.79502200       0.00296500       0.42288100
    57  C          0.84646000       0.62044000       0.88395000
    58  C          0.15354000       0.12044000       0.61605000
    59  C          0.15354000       0.37956000       0.11605000
    60  C          0.84646000       0.87956000       0.38395000
    61  H          0.81367800       0.65444000       0.92681400
    62  H          0.18632200       0.15444000       0.57318600
    63  H          0.18632200       0.34556000       0.07318600
    64  H          0.81367800       0.84556000       0.42681400
    65  C          0.87977000       0.37024000       0.81845000
    66  C          0.12023000       0.87024000       0.68155000
    67  C          0.12023000       0.62976000       0.18155000
    68  C          0.87977000       0.12976000       0.31845000
    69  C          0.69377000       0.20143000       0.89205000
    70  C          0.30623000       0.70143000       0.60795000
    71  C          0.30623000       0.79857000       0.10795000
    72  C          0.69377000       0.29857000       0.39205000
    73  C          0.68096000       0.09923000       0.89454000
    74  C          0.31904000       0.59923000       0.60546000
    75  C          0.31904000       0.90077000       0.10546000
    76  C          0.68096000       0.40077000       0.39454000
    77  C          0.80466000       0.04564000       0.90405000
    78  C          0.19534000       0.54564000       0.59595000
    79  C          0.19534000       0.95436000       0.09595000
    80  C          0.80466000       0.45436000       0.40405000
    81  H          0.89142600       0.07425100       0.90657900
    82  H          0.10857400       0.57425100       0.59342100
    83  H          0.10857400       0.92574900       0.09342100
    84  H          0.89142600       0.42574900       0.40657900
    85  C          0.79869000       0.94926000       0.90956000
    86  C          0.20131000       0.44926000       0.59044000
    87  C          0.20131000       0.05074000       0.09044000
    88  C          0.79869000       0.55074000       0.40956000
    89  H          0.88132600       0.91352600       0.91585200
    90  H          0.11867400       0.41352600       0.58414800
    91  H          0.11867400       0.08647400       0.08414800
    92  H          0.88132600       0.58647400       0.41585200
    93  C          0.66881100       0.90657000       0.90565000
    94  C          0.33118900       0.40657000       0.59435000
    95  C          0.33118900       0.09343000       0.09435000
    96  C          0.66881100       0.59343000       0.40565000
    97  H          0.66475500       0.84215700       0.90933600
    98  H          0.33524500       0.34215700       0.59066400
    99  H          0.33524500       0.15784300       0.09066400
   100  H          0.66475500       0.65784300       0.40933600
   101  C          0.54518000       0.96006000       0.89624000
   102  C          0.45482000       0.46006000       0.60376000
   103  C          0.45482000       0.03994000       0.10376000
   104  C          0.54518000       0.53994000       0.39624000
   105  H          0.45828100       0.93151200       0.89354800
   106  H          0.54171900       0.43151200       0.60645200
   107  H          0.54171900       0.06848800       0.10645200
   108  H          0.45828100       0.56848800       0.39354800
   109  C          0.55116000       0.05644000       0.89064000
   110  C          0.44884000       0.55644000       0.60936000
   111  C          0.44884000       0.94356000       0.10936000
   112  C          0.55116000       0.44356000       0.39064000
   113  H          0.46837800       0.09223700       0.88427500
   114  H          0.53162200       0.59223700       0.61572500
   115  H          0.53162200       0.90776300       0.11572500
   116  H          0.46837800       0.40776300       0.38427500
   117  C          0.60426000       0.25792000       0.93155000
   118  C          0.39574000       0.75792000       0.56845000
   119  C          0.39574000       0.74208000       0.06845000
   120  C          0.60426000       0.24208000       0.43155000
   121  C          0.66176000       0.27473000       0.04274000
   122  C          0.33824000       0.77473000       0.45726000
   123  C          0.33824000       0.72527000       0.95726000
   124  C          0.66176000       0.22527000       0.54274000
   125  H          0.75278800       0.24670000       0.09205300
   126  H          0.24721200       0.74670000       0.40794700
   127  H          0.24721200       0.75330000       0.90794700
   128  H          0.75278800       0.25330000       0.59205300
   129  C          0.58319000       0.33334000       0.08014000
   130  C          0.41681000       0.83334000       0.41986000
   131  C          0.41681000       0.66666000       0.91986000
   132  C          0.58319000       0.16666000       0.58014000
   133  H          0.62156700       0.34459000       0.15448000
   134  H          0.37843300       0.84459000       0.34552000
   135  H          0.37843300       0.65541000       0.84552000
   136  H          0.62156700       0.15541000       0.65448000
   137  C          0.44708000       0.37523000       0.00637000
   138  C          0.55292000       0.87523000       0.49363000
   139  C          0.55292000       0.62477000      -0.00637000
   140  C          0.44708000       0.12477000       0.50637000
   141  H          0.39436300       0.41442800       0.03135200
   142  H          0.60563700       0.91442800       0.46864800
   143  H          0.60563700       0.58557200       0.96864800
   144  H          0.39436300       0.08557200       0.53135200
   145  C          0.38955000       0.35844000       0.89526000
   146  C          0.61045000       0.85844000       0.60474000
   147  C          0.61045000       0.64156000       0.10474000
   148  C          0.38955000       0.14156000       0.39526000
   149  H          0.29837800       0.38637800       0.84579700
   150  H          0.70162200       0.88637800       0.65420300
   151  H          0.70162200       0.61362200       0.15420300
   152  H          0.29837800       0.11362200       0.34579700
   153  C          0.46817000       0.29974000       0.85784000
   154  C          0.53183000       0.79974000       0.64216000
   155  C          0.53183000       0.70026000       0.14216000
   156  C          0.46817000       0.20026000       0.35784000
   157  H          0.42959700       0.28848700       0.78336800
   158  H          0.57040300       0.78848700       0.71663200
   159  H          0.57040300       0.71151300       0.21663200
   160  H          0.42959700       0.21151300       0.28336800
