data_KOWYEA09
_symmetry_space_group_name_H-M    'P1'
_symmetry_Int_Tables_number       1
loop_
_symmetry_equiv_pos_site_id
_symmetry_equiv_pos_as_xyz
1 x,y,z
_cell_length_a                   9.636216
_cell_length_b                   8.509217
_cell_length_c                   15.874
_cell_angle_alpha                90.0
_cell_angle_beta                 90.0
_cell_angle_gamma                90.0
loop_
_atom_site_label
_atom_site_type_symbol
_atom_site_fract_x
_atom_site_fract_y
_atom_site_fract_z
     1  N          0.78415000       0.15746000       0.50531000
     2  N          0.71585000       0.84254000       0.00531000
     3  N          0.28415000       0.34254000       0.49469000
     4  N          0.21585000       0.65746000      -0.00531000
     5  N          0.21585000       0.84254000       0.49469000
     6  N          0.28415000       0.15746000      -0.00531000
     7  N          0.71585000       0.65746000       0.50531000
     8  N          0.78415000       0.34254000       0.00531000
     9  H          0.70330000       0.15550000       0.48230000
    10  H          0.79670000       0.84450000       0.98230000
    11  H          0.20330000       0.34450000       0.51770000
    12  H          0.29670000       0.65550000       0.01770000
    13  H          0.29670000       0.84450000       0.51770000
    14  H          0.20330000       0.15550000       0.01770000
    15  H          0.79670000       0.65550000       0.48230000
    16  H          0.70330000       0.34450000       0.98230000
    17  C          0.89336000       0.23678000       0.47881200
    18  C          0.60664000       0.76322000       0.97881200
    19  C          0.39336000       0.26322000       0.52118800
    20  C          0.10664000       0.73678000       0.02118800
    21  C          0.10664000       0.76322000       0.52118800
    22  C          0.39336000       0.23678000       0.02118800
    23  C          0.60664000       0.73678000       0.47881200
    24  C          0.89336000       0.26322000       0.97881200
    25  N          0.00225000       0.21825000       0.53271000
    26  N          0.49775000       0.78175000       0.03271000
    27  N          0.50225000       0.28175000       0.46729000
    28  N         -0.00225000       0.71825000       0.96729000
    29  N         -0.00225000       0.78175000       0.46729000
    30  N          0.50225000       0.21825000       0.96729000
    31  N          0.49775000       0.71825000       0.53271000
    32  N          0.00225000       0.28175000       0.03271000
    33  C          0.02393000       0.05686000       0.66667000
    34  C          0.47607000       0.94314000       0.16667000
    35  C          0.52393000       0.44314000       0.33333000
    36  C          0.97607000       0.55686000       0.83333000
    37  C          0.97607000       0.94314000       0.33333000
    38  C          0.52393000       0.05686000       0.83333000
    39  C          0.47607000       0.55686000       0.66667000
    40  C          0.02393000       0.44314000       0.16667000
    41  H          0.11510000       0.08350000       0.67940000
    42  H          0.38490000       0.91650000       0.17940000
    43  H          0.61510000       0.41650000       0.32060000
    44  H          0.88490000       0.58350000       0.82060000
    45  H          0.88490000       0.91650000       0.32060000
    46  H          0.61510000       0.08350000       0.82060000
    47  H          0.38490000       0.58350000       0.67940000
    48  H          0.11510000       0.41650000       0.17940000
    49  C          0.96044000       0.11896000       0.59536000
    50  C          0.53956000       0.88104000       0.09536000
    51  C          0.46044000       0.38104000       0.40464000
    52  C          0.03956000       0.61896000       0.90464000
    53  C          0.03956000       0.88104000       0.40464000
    54  C          0.46044000       0.11896000       0.90464000
    55  C          0.53956000       0.61896000       0.59536000
    56  C          0.96044000       0.38104000       0.09536000
    57  C          0.82424000       0.07906000       0.57626000
    58  C          0.67576000       0.92094000       0.07626000
    59  C          0.32424000       0.42094000       0.42374000
    60  C          0.17576000       0.57906000       0.92374000
    61  C          0.17576000       0.92094000       0.42374000
    62  C          0.32424000       0.07906000       0.92374000
    63  C          0.67576000       0.57906000       0.57626000
    64  C          0.82424000       0.42094000       0.07626000
    65  C          0.75133000       0.97695000       0.62847000
    66  C          0.74867000       0.02305000       0.12847000
    67  C          0.25133000       0.52305000       0.37153000
    68  C          0.24867000       0.47695000       0.87153000
    69  C          0.24867000       0.02305000       0.37153000
    70  C          0.25133000       0.97695000       0.87153000
    71  C          0.74867000       0.47695000       0.62847000
    72  C          0.75133000       0.52305000       0.12847000
    73  H          0.66010000       0.95030000       0.61560000
    74  H          0.83990000       0.04970000       0.11560000
    75  H          0.16010000       0.54970000       0.38440000
    76  H          0.33990000       0.45030000       0.88440000
    77  H          0.33990000       0.04970000       0.38440000
    78  H          0.16010000       0.95030000       0.88440000
    79  H          0.83990000       0.45030000       0.61560000
    80  H          0.66010000       0.54970000       0.11560000
    81  C          0.81474000       0.91475000       0.69967000
    82  C          0.68526000       0.08525000       0.19967000
    83  C          0.31474000       0.58525000       0.30033000
    84  C          0.18526000       0.41475000       0.80033000
    85  C          0.18526000       0.08525000       0.30033000
    86  C          0.31474000       0.91475000       0.80033000
    87  C          0.68526000       0.41475000       0.69967000
    88  C          0.81474000       0.58525000       0.19967000
    89  H          0.76600000       0.84650000       0.73450000
    90  H          0.73400000       0.15350000       0.23450000
    91  H          0.26600000       0.65350000       0.26550000
    92  H          0.23400000       0.34650000       0.76550000
    93  H          0.23400000       0.15350000       0.26550000
    94  H          0.26600000       0.84650000       0.76550000
    95  H          0.73400000       0.34650000       0.73450000
    96  H          0.76600000       0.65350000       0.23450000
    97  C          0.95104000       0.95464000       0.71877000
    98  C          0.54896000       0.04536000       0.21877000
    99  C          0.45104000       0.54536000       0.28123000
   100  C          0.04896000       0.45464000       0.78123000
   101  C          0.04896000       0.04536000       0.28123000
   102  C          0.45104000       0.95464000       0.78123000
   103  C          0.54896000       0.45464000       0.71877000
   104  C          0.95104000       0.54536000       0.21877000
   105  H         -0.00660000       0.91310000       0.76640000
   106  H          0.50660000       0.08690000       0.26640000
   107  H          0.49340000       0.58690000       0.23360000
   108  H          0.00660000       0.41310000       0.73360000
   109  H          0.00660000       0.08690000       0.23360000
   110  H          0.49340000       0.91310000       0.73360000
   111  H          0.50660000       0.41310000       0.76640000
   112  H         -0.00660000       0.58690000       0.26640000
   113  C          0.90027000       0.33829000       0.40791500
   114  C          0.59973000       0.66171000       0.90791500
   115  C          0.40027000       0.16171000       0.59208500
   116  C          0.09973000       0.83829000       0.09208500
   117  C          0.09973000       0.66171000       0.59208500
   118  C          0.40027000       0.33829000       0.09208500
   119  C          0.59973000       0.83829000       0.40791500
   120  C          0.90027000       0.16171000       0.90791500
   121  H          0.82810000       0.31110000       0.36880000
   122  H          0.67190000       0.68890000       0.86880000
   123  H          0.32810000       0.18890000       0.63120000
   124  H          0.17190000       0.81110000       0.13120000
   125  H          0.17190000       0.68890000       0.63120000
   126  H          0.32810000       0.31110000       0.13120000
   127  H          0.67190000       0.81110000       0.36880000
   128  H          0.82810000       0.18890000       0.86880000
   129  H         -0.01110000       0.32690000       0.38100000
   130  H          0.51110000       0.67310000       0.88100000
   131  H          0.48890000       0.17310000       0.61900000
   132  H          0.01110000       0.82690000       0.11900000
   133  H          0.01110000       0.67310000       0.61900000
   134  H          0.48890000       0.32690000       0.11900000
   135  H          0.51110000       0.82690000       0.38100000
   136  H         -0.01110000       0.17310000       0.88100000
   137  H          0.88830000       0.44500000       0.42590000
   138  H          0.61170000       0.55500000       0.92590000
   139  H          0.38830000       0.05500000       0.57410000
   140  H          0.11170000       0.94500000       0.07410000
   141  H          0.11170000       0.55500000       0.57410000
   142  H          0.38830000       0.44500000       0.07410000
   143  H          0.61170000       0.94500000       0.42590000
   144  H          0.88830000       0.05500000       0.92590000
