data_KOWYEA03
_symmetry_space_group_name_H-M    'P1'
_symmetry_Int_Tables_number       1
loop_
_symmetry_equiv_pos_site_id
_symmetry_equiv_pos_as_xyz
1 x,y,z
_cell_length_a                   13.9612
_cell_length_b                   13.9612
_cell_length_c                   7.171312
_cell_angle_alpha                90.0
_cell_angle_beta                 90.0
_cell_angle_gamma                90.0
loop_
_atom_site_label
_atom_site_type_symbol
_atom_site_fract_x
_atom_site_fract_y
_atom_site_fract_z
     1  N          0.59665000       0.54125000      -0.00847000
     2  N          0.45875000       0.09665000       0.49153000
     3  N          0.90335000       0.95875000      -0.00847000
     4  N          0.04125000       0.40335000       0.49153000
     5  N          0.40335000       0.45875000       0.00847000
     6  N          0.54125000       0.90335000       0.50847000
     7  N          0.09665000       0.04125000       0.00847000
     8  N          0.95875000       0.59665000       0.50847000
     9  H          0.54210000       0.51340000       0.97880000
    10  H          0.48660000       0.04210000       0.47880000
    11  H          0.95790000       0.98660000       0.97880000
    12  H          0.01340000       0.45790000       0.47880000
    13  H          0.45790000       0.48660000       0.02120000
    14  H          0.51340000       0.95790000       0.52120000
    15  H          0.04210000       0.01340000       0.02120000
    16  H          0.98660000       0.54210000       0.52120000
    17  C          0.61737000       0.63617000       0.97451000
    18  C          0.36383000       0.11737000       0.47451000
    19  C          0.88263000       0.86383000       0.97451000
    20  C          0.13617000       0.38263000       0.47451000
    21  C          0.38263000       0.36383000       0.02549000
    22  C          0.63617000       0.88263000       0.52549000
    23  C          0.11737000       0.13617000       0.02549000
    24  C          0.86383000       0.61737000       0.52549000
    25  C          0.53966000       0.70716000       0.92882000
    26  C          0.29284000       0.03966000       0.42882000
    27  C          0.96034000       0.79284000       0.92882000
    28  C          0.20716000       0.46034000       0.42882000
    29  C          0.46034000       0.29284000       0.07118000
    30  C          0.70716000       0.96034000       0.57118000
    31  C          0.03966000       0.20716000       0.07118000
    32  C          0.79284000       0.53966000       0.57118000
    33  H          0.49740000       0.68010000       0.83730000
    34  H          0.31990000      -0.00260000       0.33730000
    35  H          0.00260000       0.81990000       0.83730000
    36  H          0.18010000       0.50260000       0.33730000
    37  H          0.50260000       0.31990000       0.16270000
    38  H          0.68010000       0.00260000       0.66270000
    39  H         -0.00260000       0.18010000       0.16270000
    40  H          0.81990000       0.49740000       0.66270000
    41  H          0.56790000       0.76460000       0.88060000
    42  H          0.23540000       0.06790000       0.38060000
    43  H          0.93210000       0.73540000       0.88060000
    44  H          0.26460000       0.43210000       0.38060000
    45  H          0.43210000       0.23540000       0.11940000
    46  H          0.76460000       0.93210000       0.61940000
    47  H          0.06790000       0.26460000       0.11940000
    48  H          0.73540000       0.56790000       0.61940000
    49  H          0.50410000       0.72180000       0.03990000
    50  H          0.27820000       0.00410000       0.53990000
    51  H         -0.00410000       0.77820000       0.03990000
    52  H          0.22180000       0.49590000       0.53990000
    53  H          0.49590000       0.27820000       0.96010000
    54  H          0.72180000      -0.00410000       0.46010000
    55  H          0.00410000       0.22180000       0.96010000
    56  H          0.77820000       0.50410000       0.46010000
    57  N          0.70655000       0.65674000       0.00536000
    58  N          0.34326000       0.20655000       0.50536000
    59  N          0.79345000       0.84326000       0.00536000
    60  N          0.15674000       0.29345000       0.50536000
    61  N          0.29345000       0.34326000      -0.00536000
    62  N          0.65674000       0.79345000       0.49464000
    63  N          0.20655000       0.15674000      -0.00536000
    64  N          0.84326000       0.70655000       0.49464000
    65  C          0.84844000       0.54943000       0.07956000
    66  C          0.45057000       0.34844000       0.57956000
    67  C          0.65156000       0.95057000       0.07956000
    68  C          0.04943000       0.15156000       0.57956000
    69  C          0.15156000       0.45057000       0.92044000
    70  C          0.54943000       0.65156000       0.42044000
    71  C          0.34844000       0.04943000       0.92044000
    72  C          0.95057000       0.84844000       0.42044000
    73  H          0.89400000       0.59780000       0.08580000
    74  H          0.40220000       0.39400000       0.58580000
    75  H          0.60600000       0.90220000       0.08580000
    76  H          0.09780000       0.10600000       0.58580000
    77  H          0.10600000       0.40220000       0.91420000
    78  H          0.59780000       0.60600000       0.41420000
    79  H          0.39400000       0.09780000       0.91420000
    80  H          0.90220000       0.89400000       0.41420000
    81  C          0.75314000       0.57203000       0.04385000
    82  C          0.42797000       0.25314000       0.54385000
    83  C          0.74686000       0.92797000       0.04385000
    84  C          0.07203000       0.24686000       0.54385000
    85  C          0.24686000       0.42797000       0.95615000
    86  C          0.57203000       0.74686000       0.45615000
    87  C          0.25314000       0.07203000       0.95615000
    88  C          0.92797000       0.75314000       0.45615000
    89  C          0.68493000       0.49974000       0.03456000
    90  C          0.50026000       0.18493000       0.53456000
    91  C          0.81507000       0.00026000       0.03456000
    92  C         -0.00026000       0.31507000       0.53456000
    93  C          0.31507000       0.50026000       0.96544000
    94  C          0.49974000       0.81507000       0.46544000
    95  C          0.18493000      -0.00026000       0.96544000
    96  C          0.00026000       0.68493000       0.46544000
    97  C          0.71184000       0.40483000       0.06097000
    98  C          0.59517000       0.21184000       0.56097000
    99  C          0.78816000       0.09517000       0.06097000
   100  C          0.90483000       0.28816000       0.56097000
   101  C          0.28816000       0.59517000       0.93903000
   102  C          0.40483000       0.78816000       0.43903000
   103  C          0.21184000       0.90483000       0.93903000
   104  C          0.09517000       0.71184000       0.43903000
   105  H          0.66610000       0.35650000       0.05460000
   106  H          0.64350000       0.16610000       0.55460000
   107  H          0.83390000       0.14350000       0.05460000
   108  H          0.85650000       0.33390000       0.55460000
   109  H          0.33390000       0.64350000       0.94540000
   110  H          0.35650000       0.83390000       0.44540000
   111  H          0.16610000       0.85650000       0.94540000
   112  H          0.14350000       0.66610000       0.44540000
   113  C          0.80704000       0.38233000       0.09667000
   114  C          0.61767000       0.30704000       0.59667000
   115  C          0.69296000       0.11767000       0.09667000
   116  C          0.88233000       0.19296000       0.59667000
   117  C          0.19296000       0.61767000       0.90333000
   118  C          0.38233000       0.69296000       0.40333000
   119  C          0.30704000       0.88233000       0.90333000
   120  C          0.11767000       0.80704000       0.40333000
   121  H          0.82510000       0.31880000       0.11420000
   122  H          0.68120000       0.32510000       0.61420000
   123  H          0.67490000       0.18120000       0.11420000
   124  H          0.81880000       0.17490000       0.61420000
   125  H          0.17490000       0.68120000       0.88580000
   126  H          0.31880000       0.67490000       0.38580000
   127  H          0.32510000       0.81880000       0.88580000
   128  H          0.18120000       0.82510000       0.38580000
   129  C          0.87533000       0.45464000       0.10597000
   130  C          0.54536000       0.37533000       0.60597000
   131  C          0.62467000       0.04536000       0.10597000
   132  C          0.95464000       0.12467000       0.60597000
   133  C          0.12467000       0.54536000       0.89403000
   134  C          0.45464000       0.62467000       0.39403000
   135  C          0.37533000       0.95464000       0.89403000
   136  C          0.04536000       0.87533000       0.39403000
   137  H          0.93900000       0.43940000       0.12980000
   138  H          0.56060000       0.43900000       0.62980000
   139  H          0.56100000       0.06060000       0.12980000
   140  H          0.93940000       0.06100000       0.62980000
   141  H          0.06100000       0.56060000       0.87020000
   142  H          0.43940000       0.56100000       0.37020000
   143  H          0.43900000       0.93940000       0.87020000
   144  H          0.06060000       0.93900000       0.37020000
