data_KOWYEA02
_symmetry_space_group_name_H-M    'P1'
_symmetry_Int_Tables_number       1
loop_
_symmetry_equiv_pos_site_id
_symmetry_equiv_pos_as_xyz
1 x,y,z
_cell_length_a                   13.96393
_cell_length_b                   7.21072
_cell_length_c                   13.96393
_cell_angle_alpha                90.0
_cell_angle_beta                 90.0
_cell_angle_gamma                90.0
loop_
_atom_site_label
_atom_site_type_symbol
_atom_site_fract_x
_atom_site_fract_y
_atom_site_fract_z
     1  N          0.35061800      -0.00535830       0.34495110
     2  N          0.85061800       0.00535830       0.84495110
     3  N          0.46595800      -0.00404840       0.23413110
     4  N          0.96595800       0.00404840       0.73413110
     5  C          0.44546800       0.01851170       0.32538120
     6  C          0.94546800      -0.01851170       0.82538120
     7  C          0.30676800       0.95622000       0.25922110
     8  C          0.80676800       0.04378000       0.75922110
     9  C          0.37891800       0.95532000       0.18950110
    10  C          0.87891800       0.04468000       0.68950110
    11  C          0.51618100       0.06642000       0.40109120
    12  C          0.01618100       0.93358000       0.90109120
    13  C          0.21153100       0.92474000       0.23410160
    14  C          0.71153100       0.07526000       0.73410160
    15  C          0.19178120       0.89213000       0.13947180
    16  C          0.69178120       0.10787000       0.63947180
    17  C          0.26348110       0.89043000       0.06995140
    18  C          0.76348110       0.10957000       0.56995140
    19  C          0.35809110       0.92332000       0.09383120
    20  C          0.85809110       0.07668000       0.59383120
    21  H          0.32731200      -0.01038100       0.40081200
    22  H          0.82731200       0.01038100       0.90081200
    23  H          0.48770000       0.14340000       0.44840000
    24  H          0.98770000       0.85660000       0.94840000
    25  H          0.56920000       0.12900000       0.37330000
    26  H          0.06920000       0.87100000       0.87330000
    27  H          0.53740000       0.95440000       0.42990000
    28  H          0.03740000       0.04560000       0.92990000
    29  H          0.16240000       0.92770000       0.28120000
    30  H          0.66240000       0.07230000       0.78120000
    31  H          0.12770000       0.86690000       0.12090000
    32  H          0.62770000       0.13310000       0.62090000
    33  H          0.24790000       0.86760000       0.00480000
    34  H          0.74790000       0.13240000       0.50480000
    35  H          0.40730000       0.92400000       0.04690000
    36  H          0.90730000       0.07600000       0.54690000
    37  N          0.65262700      -0.00706850       0.14970100
    38  N          0.15262700       0.00706850       0.64970100
    39  N          0.76824700       0.02132170       0.04009100
    40  N          0.26824700       0.97867830       0.54009100
    41  C          0.67556800       0.03214180       0.05777100
    42  C          0.17556800       0.96785820       0.55777100
    43  C          0.73702800       0.95690190       0.19693100
    44  C          0.23702800       0.04309810       0.69693100
    45  C          0.80930800       0.97382000       0.12729120
    46  C          0.30930800       0.02618000       0.62729120
    47  C          0.60113900       0.07542000       0.98464880
    48  C          0.10113900       0.92458000       0.48464880
    49  C          0.75761100       0.91512000       0.29176120
    50  C          0.25761100       0.08488000       0.79176120
    51  C          0.85217110       0.89452000       0.31752130
    52  C          0.35217110       0.10548000       0.81752130
    53  C          0.92460110       0.91163000       0.24861150
    54  C          0.42460110       0.08837000       0.74861150
    55  C          0.90494900       0.94933000       0.15409150
    56  C          0.40494900       0.05067000       0.65409150
    57  H          0.59391300       0.00320000       0.17781500
    58  H          0.09391300      -0.00320000       0.67781500
    59  H          0.54860000       0.13590000       0.01450000
    60  H          0.04860000       0.86410000       0.51450000
    61  H          0.57950000       0.96490000       0.95460000
    62  H          0.07950000       0.03510000       0.45460000
    63  H          0.62850000       0.15520000       0.93800000
    64  H          0.12850000       0.84480000       0.43800000
    65  H          0.70820000       0.90050000       0.33790000
    66  H          0.20820000       0.09950000       0.83790000
    67  H          0.86930000       0.86900000       0.38200000
    68  H          0.36930000       0.13100000       0.88200000
    69  H          0.98960000       0.89710000       0.26740000
    70  H          0.48960000       0.10290000       0.76740000
    71  H          0.95550000       0.95800000       0.10880000
    72  H          0.45550000       0.04200000       0.60880000
    73  N          0.71474800       0.49081180       0.39971110
    74  N          0.21474800       0.50918820       0.89971110
    75  N          0.60452800       0.50033160       0.28424100
    76  N          0.10452800       0.49966840       0.78424100
    77  C          0.69638800       0.47296180       0.30571100
    78  C          0.19638800       0.52703820       0.80571100
    79  C          0.62903900       0.53382000       0.44495120
    80  C          0.12903900       0.46618000       0.94495120
    81  C          0.56040800       0.53781190       0.37198110
    82  C          0.06040800       0.46218810       0.87198110
    83  C          0.77204900       0.42922000       0.23517110
    84  C          0.27204900       0.57078000       0.73517110
    85  C          0.60304120       0.56193000       0.53858150
    86  C          0.10304120       0.43807000       0.03858150
    87  C          0.50753130       0.59643000       0.55965150
    88  C          0.00753130       0.40357000       0.05965150
    89  C          0.43963100       0.60212000       0.48621140
    90  C          0.93963100       0.39788000       0.98621140
    91  C          0.46410900       0.57412000       0.39262130
    92  C          0.96410900       0.42588000       0.89262130
    93  H          0.77151200       0.49520000       0.42581400
    94  H          0.27151200       0.50480000       0.92581400
    95  H          0.80000000       0.54110000       0.21260000
    96  H          0.30000000       0.45890000       0.71260000
    97  H          0.82000000       0.35440000       0.26410000
    98  H          0.32000000       0.64560000       0.76410000
    99  H          0.74420000       0.36410000       0.18300000
   100  H          0.24420000       0.63590000       0.68300000
   101  H          0.64970000       0.56330000       0.58810000
   102  H          0.14970000       0.43670000       0.08810000
   103  H          0.48720000       0.60950000       0.62420000
   104  H          0.98720000       0.39050000       0.12420000
   105  H          0.37510000       0.63060000       0.50180000
   106  H          0.87510000       0.36940000       0.00180000
   107  H          0.41780000       0.57820000       0.34280000
   108  H          0.91780000       0.42180000       0.84280000
   109  N          0.52054800       0.51103160       0.09761100
   110  N          0.02054800       0.48896840       0.59761100
   111  N          0.40977800       0.49141180       0.98308900
   112  N          0.90977800       0.50858820       0.48308900
   113  C          0.42789900       0.47720180       0.07529120
   114  C          0.92789900       0.52279820       0.57529120
   115  C          0.56715800       0.54934190       0.01424100
   116  C          0.06715800       0.45065810       0.51424100
   117  C          0.49794900       0.53582000       0.94255890
   118  C         -0.00205100       0.46418000       0.44255890
   119  C          0.35542100       0.42972000       0.15022130
   120  C          0.85542100       0.57028000       0.65022130
   121  C          0.66260900       0.58782000      -0.00749120
   122  C          0.16260900       0.41218000       0.49250880
   123  C          0.68694110       0.61202000       0.89766870
   124  C          0.18694110       0.38798000       0.39766870
   125  C          0.61845140       0.59923000       0.82757840
   126  C          0.11845140       0.40077000       0.32757840
   127  C          0.52321130       0.56073000       0.84692870
   128  C          0.02321130       0.43927000       0.34692870
   129  H          0.54011100       0.50220000       0.15691200
   130  H          0.04011100       0.49780000       0.65691200
   131  H          0.38560000       0.36620000       0.20160000
   132  H          0.88560000       0.63380000       0.70160000
   133  H          0.30780000       0.35220000       0.12260000
   134  H          0.80780000       0.64780000       0.62260000
   135  H          0.32650000       0.54000000       0.17350000
   136  H          0.82650000       0.46000000       0.67350000
   137  H          0.71000000       0.59670000       0.04110000
   138  H          0.21000000       0.40330000       0.54110000
   139  H          0.75170000       0.63580000       0.88070000
   140  H          0.25170000       0.36420000       0.38070000
   141  H          0.63650000       0.62200000       0.76300000
   142  H          0.13650000       0.37800000       0.26300000
   143  H          0.47740000       0.54640000       0.79720000
   144  H          0.97740000       0.45360000       0.29720000
