data_KOWYEA04
_symmetry_space_group_name_H-M    'P1'
_symmetry_Int_Tables_number       1
loop_
_symmetry_equiv_pos_site_id
_symmetry_equiv_pos_as_xyz
1 x,y,z
_cell_length_a                   13.949319
_cell_length_b                   13.949319
_cell_length_c                   7.111311
_cell_angle_alpha                90.0
_cell_angle_beta                 90.0
_cell_angle_gamma                90.0
loop_
_atom_site_label
_atom_site_type_symbol
_atom_site_fract_x
_atom_site_fract_y
_atom_site_fract_z
     1  N          0.79254000       0.84243000       0.49445000
     2  N          0.15757000       0.29254000      -0.00555000
     3  N          0.70746000       0.65757000       0.49445000
     4  N          0.34243000       0.20746000      -0.00555000
     5  N          0.20746000       0.15757000       0.50555000
     6  N          0.84243000       0.70746000       0.00555000
     7  N          0.29254000       0.34243000       0.50555000
     8  N          0.65757000       0.79254000       0.00555000
     9  H          0.76720000       0.78620000       0.49710000
    10  H          0.21380000       0.26720000      -0.00290000
    11  H          0.73280000       0.71380000       0.49710000
    12  H          0.28620000       0.23280000      -0.00290000
    13  H          0.23280000       0.21380000       0.50290000
    14  H          0.78620000       0.73280000       0.00290000
    15  H          0.26720000       0.28620000       0.50290000
    16  H          0.71380000       0.76720000       0.00290000
    17  C          0.88346000       0.86486000       0.52527000
    18  C          0.13514000       0.38346000       0.02527000
    19  C          0.61654000       0.63514000       0.52527000
    20  C          0.36486000       0.11654000       0.02527000
    21  C          0.11654000       0.13514000       0.47473000
    22  C          0.86486000       0.61654000       0.97473000
    23  C          0.38346000       0.36486000       0.47473000
    24  C          0.63514000       0.88346000       0.97473000
    25  N          0.90404000       0.95914000       0.50886000
    26  N          0.04086000       0.40404000       0.00886000
    27  N          0.59596000       0.54086000       0.50886000
    28  N          0.45914000       0.09596000       0.00886000
    29  N          0.09596000       0.04086000       0.49114000
    30  N          0.95914000       0.59596000      -0.00886000
    31  N          0.40404000       0.45914000       0.49114000
    32  N          0.54086000       0.90404000      -0.00886000
    33  C          0.81532000       0.00033000       0.46645000
    34  C         -0.00033000       0.31532000       0.96645000
    35  C          0.68468000       0.49967000       0.46645000
    36  C          0.50033000       0.18468000       0.96645000
    37  C          0.18468000      -0.00033000       0.53355000
    38  C          0.00033000       0.68468000       0.03355000
    39  C          0.31532000       0.50033000       0.53355000
    40  C          0.49967000       0.81532000       0.03355000
    41  C          0.74683000       0.92812000       0.45724000
    42  C          0.07188000       0.24683000       0.95724000
    43  C          0.75317000       0.57188000       0.45724000
    44  C          0.42812000       0.25317000       0.95724000
    45  C          0.25317000       0.07188000       0.54276000
    46  C          0.92812000       0.75317000       0.04276000
    47  C          0.24683000       0.42812000       0.54276000
    48  C          0.57188000       0.74683000       0.04276000
    49  C          0.65153000       0.95103000       0.42175000
    50  C          0.04897000       0.15153000       0.92175000
    51  C          0.84847000       0.54897000       0.42175000
    52  C          0.45103000       0.34847000       0.92175000
    53  C          0.34847000       0.04897000       0.57825000
    54  C          0.95103000       0.84847000       0.07825000
    55  C          0.15153000       0.45103000       0.57825000
    56  C          0.54897000       0.65153000       0.07825000
    57  H          0.60560000       0.90270000       0.41550000
    58  H          0.09730000       0.10560000       0.91550000
    59  H          0.89440000       0.59730000       0.41550000
    60  H          0.40270000       0.39440000       0.91550000
    61  H          0.39440000       0.09730000       0.58450000
    62  H          0.90270000       0.89440000       0.08450000
    63  H          0.10560000       0.40270000       0.58450000
    64  H          0.59730000       0.60560000       0.08450000
    65  C          0.62482000       0.04613000       0.39545000
    66  C          0.95387000       0.12482000       0.89545000
    67  C          0.87518000       0.45387000       0.39545000
    68  C          0.54613000       0.37518000       0.89545000
    69  C          0.37518000       0.95387000       0.60455000
    70  C          0.04613000       0.87518000       0.10455000
    71  C          0.12482000       0.54613000       0.60455000
    72  C          0.45387000       0.62482000       0.10455000
    73  H          0.56100000       0.06140000       0.37160000
    74  H          0.93860000       0.06100000       0.87160000
    75  H          0.93900000       0.43860000       0.37160000
    76  H          0.56140000       0.43900000       0.87160000
    77  H          0.43900000       0.93860000       0.62840000
    78  H          0.06140000       0.93900000       0.12840000
    79  H          0.06100000       0.56140000       0.62840000
    80  H          0.43860000       0.56100000       0.12840000
    81  C          0.69333000       0.11822000       0.40466000
    82  C          0.88178000       0.19333000       0.90466000
    83  C          0.80667000       0.38178000       0.40466000
    84  C          0.61822000       0.30667000       0.90466000
    85  C          0.30667000       0.88178000       0.59534000
    86  C          0.11822000       0.80667000       0.09534000
    87  C          0.19333000       0.61822000       0.59534000
    88  C          0.38178000       0.69333000       0.09534000
    89  H          0.67550000       0.18180000       0.38700000
    90  H          0.81820000       0.17550000       0.88700000
    91  H          0.82450000       0.31820000       0.38700000
    92  H          0.68180000       0.32450000       0.88700000
    93  H          0.32450000       0.81820000       0.61300000
    94  H          0.18180000       0.82450000       0.11300000
    95  H          0.17550000       0.68180000       0.61300000
    96  H          0.31820000       0.67550000       0.11300000
    97  C          0.78863000       0.09543000       0.44016000
    98  C          0.90457000       0.28863000       0.94016000
    99  C          0.71137000       0.40457000       0.44016000
   100  C          0.59543000       0.21137000       0.94016000
   101  C          0.21137000       0.90457000       0.55984000
   102  C          0.09543000       0.71137000       0.05984000
   103  C          0.28863000       0.59543000       0.55984000
   104  C          0.40457000       0.78863000       0.05984000
   105  H          0.83450000       0.14360000       0.44630000
   106  H          0.85640000       0.33450000       0.94630000
   107  H          0.66550000       0.35640000       0.44630000
   108  H          0.64360000       0.16550000       0.94630000
   109  H          0.16550000       0.85640000       0.55370000
   110  H          0.14360000       0.66550000       0.05370000
   111  H          0.33450000       0.64360000       0.55370000
   112  H          0.35640000       0.83450000       0.05370000
   113  C          0.95955000       0.79255000       0.56987000
   114  C          0.20745000       0.45955000       0.06987000
   115  C          0.54045000       0.70745000       0.56987000
   116  C          0.29255000       0.04045000       0.06987000
   117  C          0.04045000       0.20745000       0.43013000
   118  C          0.79255000       0.54045000       0.93013000
   119  C          0.45955000       0.29255000       0.43013000
   120  C          0.70745000       0.95955000       0.93013000
   121  H          0.93030000       0.73570000       0.62000000
   122  H          0.26430000       0.43030000       0.12000000
   123  H          0.56970000       0.76430000       0.62000000
   124  H          0.23570000       0.06970000       0.12000000
   125  H          0.06970000       0.26430000       0.38000000
   126  H          0.73570000       0.56970000       0.88000000
   127  H          0.43030000       0.23570000       0.38000000
   128  H          0.76430000       0.93030000       0.88000000
   129  H          0.00300000       0.81880000       0.66080000
   130  H          0.18120000       0.50300000       0.16080000
   131  H          0.49700000       0.68120000       0.66080000
   132  H          0.31880000      -0.00300000       0.16080000
   133  H         -0.00300000       0.18120000       0.33920000
   134  H          0.81880000       0.49700000       0.83920000
   135  H          0.50300000       0.31880000       0.33920000
   136  H          0.68120000       0.00300000       0.83920000
   137  H         -0.00600000       0.77670000       0.45720000
   138  H          0.22330000       0.49400000       0.95720000
   139  H          0.50600000       0.72330000       0.45720000
   140  H          0.27670000       0.00600000       0.95720000
   141  H          0.00600000       0.22330000       0.54280000
   142  H          0.77670000       0.50600000       0.04280000
   143  H          0.49400000       0.27670000       0.54280000
   144  H          0.72330000      -0.00600000       0.04280000
