data_KOWYEA07
_symmetry_space_group_name_H-M    'P1'
_symmetry_Int_Tables_number       1
loop_
_symmetry_equiv_pos_site_id
_symmetry_equiv_pos_as_xyz
1 x,y,z
_cell_length_a                   9.62889
_cell_length_b                   8.299711
_cell_length_c                   16.70319
_cell_angle_alpha                90.0
_cell_angle_beta                 90.0
_cell_angle_gamma                90.0
loop_
_atom_site_label
_atom_site_type_symbol
_atom_site_fract_x
_atom_site_fract_y
_atom_site_fract_z
     1  N         -0.00283000       0.22124000       0.03366000
     2  N          0.50283000       0.77876000       0.53366000
     3  N          0.49717000       0.27876000       0.96634000
     4  N          0.00283000       0.72124000       0.46634000
     5  N          0.00283000       0.77876000       0.96634000
     6  N          0.49717000       0.22124000       0.46634000
     7  N          0.50283000       0.72124000       0.03366000
     8  N         -0.00283000       0.27876000       0.53366000
     9  H          0.91680000       0.26490000       0.02810000
    10  H          0.58320000       0.73510000       0.52810000
    11  H          0.41680000       0.23510000       0.97190000
    12  H          0.08320000       0.76490000       0.47190000
    13  H          0.08320000       0.73510000       0.97190000
    14  H          0.41680000       0.26490000       0.47190000
    15  H          0.58320000       0.76490000       0.02810000
    16  H          0.91680000       0.23510000       0.52810000
    17  C          0.10614000       0.23196000       0.98241000
    18  C          0.39386000       0.76804000       0.48241000
    19  C          0.60614000       0.26804000       0.01759000
    20  C          0.89386000       0.73196000       0.51759000
    21  C          0.89386000       0.76804000       0.01759000
    22  C          0.60614000       0.23196000       0.51759000
    23  C          0.39386000       0.73196000       0.98241000
    24  C          0.10614000       0.26804000       0.48241000
    25  N          0.21533000       0.15154000       0.00676000
    26  N          0.28467000       0.84846000       0.50676000
    27  N          0.71533000       0.34846000      -0.00676000
    28  N          0.78467000       0.65154000       0.49324000
    29  N          0.78467000       0.84846000      -0.00676000
    30  N          0.71533000       0.15154000       0.49324000
    31  N          0.28467000       0.65154000       0.00676000
    32  N          0.21533000       0.34846000       0.50676000
    33  C          0.24910190       0.98236000       0.13034000
    34  C          0.25089810       0.01764000       0.63034000
    35  C          0.74910190       0.51764000       0.86966000
    36  C          0.75089810       0.48236000       0.36966000
    37  C          0.75089810       0.01764000       0.86966000
    38  C          0.74910190       0.98236000       0.36966000
    39  C          0.25089810       0.48236000       0.13034000
    40  C          0.24910190       0.51764000       0.63034000
    41  H          0.33970000       0.95180000       0.11840000
    42  H          0.16030000       0.04820000       0.61840000
    43  H          0.83970000       0.54820000       0.88160000
    44  H          0.66030000       0.45180000       0.38160000
    45  H          0.66030000       0.04820000       0.88160000
    46  H          0.83970000       0.95180000       0.38160000
    47  H          0.16030000       0.45180000       0.11840000
    48  H          0.33970000       0.54820000       0.61840000
    49  C          0.17642000       0.08144000       0.07794000
    50  C          0.32358000       0.91856000       0.57794000
    51  C          0.67642000       0.41856000       0.92206000
    52  C          0.82358000       0.58144000       0.42206000
    53  C          0.82358000       0.91856000       0.92206000
    54  C          0.67642000       0.08144000       0.42206000
    55  C          0.32358000       0.58144000       0.07794000
    56  C          0.17642000       0.41856000       0.57794000
    57  C          0.04092000       0.12713000       0.09564000
    58  C          0.45908000       0.87287000       0.59564000
    59  C          0.54092000       0.37287000       0.90436000
    60  C          0.95908000       0.62713000       0.40436000
    61  C          0.95908000       0.87287000       0.90436000
    62  C          0.54092000       0.12713000       0.40436000
    63  C          0.45908000       0.62713000       0.09564000
    64  C          0.04092000       0.37287000       0.59564000
    65  C          0.97818000       0.07384000       0.16574000
    66  C          0.52182000       0.92616000       0.66574000
    67  C          0.47818000       0.42616000       0.83426000
    68  C          0.02182000       0.57384000       0.33426000
    69  C          0.02182000       0.92616000       0.83426000
    70  C          0.47818000       0.07384000       0.33426000
    71  C          0.52182000       0.57384000       0.16574000
    72  C          0.97818000       0.42616000       0.66574000
    73  H          0.88760000       0.10440000       0.17750000
    74  H          0.61240000       0.89560000       0.67750000
    75  H          0.38760000       0.39560000       0.82250000
    76  H          0.11240000       0.60440000       0.32250000
    77  H          0.11240000       0.89560000       0.82250000
    78  H          0.38760000       0.10440000       0.32250000
    79  H          0.61240000       0.60440000       0.17750000
    80  H          0.88760000       0.39560000       0.67750000
    81  C          0.05093000       0.97476000       0.21814000
    82  C          0.44907000       0.02524000       0.71814000
    83  C          0.55093000       0.52524000       0.78186000
    84  C          0.94907000       0.47476000       0.28186000
    85  C          0.94907000       0.02524000       0.78186000
    86  C          0.55093000       0.97476000       0.28186000
    87  C          0.44907000       0.47476000       0.21814000
    88  C          0.05093000       0.52524000       0.71814000
    89  H          0.00900000       0.93910000       0.26500000
    90  H          0.49100000       0.06090000       0.76500000
    91  H          0.50900000       0.56090000       0.73500000
    92  H         -0.00900000       0.43910000       0.23500000
    93  H         -0.00900000       0.06090000       0.73500000
    94  H          0.50900000       0.93910000       0.23500000
    95  H          0.49100000       0.43910000       0.26500000
    96  H          0.00900000       0.56090000       0.76500000
    97  C          0.18643000       0.92907000       0.20044000
    98  C          0.31357000       0.07093000       0.70044000
    99  C          0.68643000       0.57093000       0.79956000
   100  C          0.81357000       0.42907000       0.29956000
   101  C          0.81357000       0.07093000       0.79956000
   102  C          0.68643000       0.92907000       0.29956000
   103  C          0.31357000       0.42907000       0.20044000
   104  C          0.18643000       0.57093000       0.70044000
   105  H          0.23500000       0.86280000       0.23550000
   106  H          0.26500000       0.13720000       0.73550000
   107  H          0.73500000       0.63720000       0.76450000
   108  H          0.76500000       0.36280000       0.26450000
   109  H          0.76500000       0.13720000       0.76450000
   110  H          0.73500000       0.86280000       0.26450000
   111  H          0.26500000       0.36280000       0.23550000
   112  H          0.23500000       0.63720000       0.73550000
   113  C          0.09824000       0.32557000       0.90861000
   114  C          0.40176000       0.67443000       0.40861000
   115  C          0.59824000       0.17443000       0.09139000
   116  C          0.90176000       0.82557000       0.59139000
   117  C          0.90176000       0.67443000       0.09139000
   118  C          0.59824000       0.32557000       0.59139000
   119  C          0.40176000       0.82557000       0.90861000
   120  C          0.09824000       0.17443000       0.40861000
   121  H          0.00390000       0.32820000       0.89020000
   122  H          0.49610000       0.67180000       0.39020000
   123  H          0.50390000       0.17180000       0.10980000
   124  H         -0.00390000       0.82820000       0.60980000
   125  H         -0.00390000       0.67180000       0.10980000
   126  H          0.50390000       0.32820000       0.60980000
   127  H          0.49610000       0.82820000       0.89020000
   128  H          0.00390000       0.17180000       0.39020000
   129  H          0.15590000       0.27650000       0.86860000
   130  H          0.34410000       0.72350000       0.36860000
   131  H          0.65590000       0.22350000       0.13140000
   132  H          0.84410000       0.77650000       0.63140000
   133  H          0.84410000       0.72350000       0.13140000
   134  H          0.65590000       0.27650000       0.63140000
   135  H          0.34410000       0.77650000       0.86860000
   136  H          0.15590000       0.22350000       0.36860000
   137  H          0.12970000       0.43340000       0.91860000
   138  H          0.37030000       0.56660000       0.41860000
   139  H          0.62970000       0.06660000       0.08140000
   140  H          0.87030000       0.93340000       0.58140000
   141  H          0.87030000       0.56660000       0.08140000
   142  H          0.62970000       0.43340000       0.58140000
   143  H          0.37030000       0.93340000       0.91860000
   144  H          0.12970000       0.06660000       0.41860000
