data_KOWYEA14
_symmetry_space_group_name_H-M    'P1'
_symmetry_Int_Tables_number       1
loop_
_symmetry_equiv_pos_site_id
_symmetry_equiv_pos_as_xyz
1 x,y,z
_cell_length_a                   9.67334
_cell_length_b                   8.71433
_cell_length_c                   13.6861
_cell_angle_alpha                90.0
_cell_angle_beta                 90.0
_cell_angle_gamma                90.0
loop_
_atom_site_label
_atom_site_type_symbol
_atom_site_fract_x
_atom_site_fract_y
_atom_site_fract_z
     1  N         -0.01008000       0.21602000       0.46555000
     2  N          0.51008000       0.78398000       0.96555000
     3  N          0.48992000       0.28398000       0.53445000
     4  N          0.01008000       0.71602000       0.03445000
     5  N          0.01008000       0.78398000       0.53445000
     6  N          0.48992000       0.21602000       0.03445000
     7  N          0.51008000       0.71602000       0.46555000
     8  N         -0.01008000       0.28398000       0.96555000
     9  H          0.90920000       0.25690000       0.46940000
    10  H          0.59080000       0.74310000       0.96940000
    11  H          0.40920000       0.24310000       0.53060000
    12  H          0.09080000       0.75690000       0.03060000
    13  H          0.09080000       0.74310000       0.53060000
    14  H          0.40920000       0.25690000       0.03060000
    15  H          0.59080000       0.75690000       0.46940000
    16  H          0.90920000       0.24310000       0.96940000
    17  C          0.10222000       0.25293000       0.52308000
    18  C          0.39778000       0.74707000       0.02308000
    19  C          0.60222000       0.24707000       0.47692000
    20  C          0.89778000       0.75293000       0.97692000
    21  C          0.89778000       0.74707000       0.47692000
    22  C          0.60222000       0.25293000       0.97692000
    23  C          0.39778000       0.75293000       0.52308000
    24  C          0.10222000       0.24707000       0.02308000
    25  N          0.21282000       0.17372000       0.49645000
    26  N          0.28718000       0.82628000      -0.00355000
    27  N          0.71282000       0.32628000       0.50355000
    28  N          0.78718000       0.67372000       0.00355000
    29  N          0.78718000       0.82628000       0.50355000
    30  N          0.71282000       0.17372000       0.00355000
    31  N          0.28718000       0.67372000       0.49645000
    32  N          0.21282000       0.32628000      -0.00355000
    33  C          0.24123000       0.96797000       0.36747000
    34  C          0.25877000       0.03203000       0.86747000
    35  C          0.74123000       0.53203000       0.63253000
    36  C          0.75877000       0.46797000       0.13253000
    37  C          0.75877000       0.03203000       0.63253000
    38  C          0.74123000       0.96797000       0.13253000
    39  C          0.25877000       0.46797000       0.36747000
    40  C          0.24123000       0.53203000       0.86747000
    41  H          0.33480000       0.95080000       0.37850000
    42  H          0.16520000       0.04920000       0.87850000
    43  H          0.83480000       0.54920000       0.62150000
    44  H          0.66520000       0.45080000       0.12150000
    45  H          0.66520000       0.04920000       0.62150000
    46  H          0.83480000       0.95080000       0.12150000
    47  H          0.16520000       0.45080000       0.37850000
    48  H          0.33480000       0.54920000       0.87850000
    49  C          0.17053000       0.88427000       0.29767000
    50  C          0.32947000       0.11573000       0.79767000
    51  C          0.67053000       0.61573000       0.70233000
    52  C          0.82947000       0.38427000       0.20233000
    53  C          0.82947000       0.11573000       0.70233000
    54  C          0.67053000       0.88427000       0.20233000
    55  C          0.32947000       0.38427000       0.29767000
    56  C          0.17053000       0.61573000       0.79767000
    57  H          0.21730000       0.80980000       0.26180000
    58  H          0.28270000       0.19020000       0.76180000
    59  H          0.71730000       0.69020000       0.73820000
    60  H          0.78270000       0.30980000       0.23820000
    61  H          0.78270000       0.19020000       0.73820000
    62  H          0.71730000       0.80980000       0.23820000
    63  H          0.28270000       0.30980000       0.26180000
    64  H          0.21730000       0.69020000       0.76180000
    65  C          0.03033000       0.90967000       0.27987000
    66  C          0.46967000       0.09033000       0.77987000
    67  C          0.53033000       0.59033000       0.72013000
    68  C          0.96967000       0.40967000       0.22013000
    69  C          0.96967000       0.09033000       0.72013000
    70  C          0.53033000       0.90967000       0.22013000
    71  C          0.46967000       0.40967000       0.27987000
    72  C          0.03033000       0.59033000       0.77987000
    73  H          0.98510000       0.85190000       0.23240000
    74  H          0.51490000       0.14810000       0.73240000
    75  H          0.48510000       0.64810000       0.76760000
    76  H          0.01490000       0.35190000       0.26760000
    77  H          0.01490000       0.14810000       0.76760000
    78  H          0.48510000       0.85190000       0.26760000
    79  H          0.51490000       0.35190000       0.23240000
    80  H          0.98510000       0.64810000       0.73240000
    81  C          0.95763000       0.01953000       0.33167000
    82  C          0.54237000       0.98047000       0.83167000
    83  C          0.45763000       0.48047000       0.66833000
    84  C          0.04237000       0.51953000       0.16833000
    85  C          0.04237000       0.98047000       0.66833000
    86  C          0.45763000       0.01953000       0.16833000
    87  C          0.54237000       0.51953000       0.33167000
    88  C          0.95763000       0.48047000       0.83167000
    89  H          0.86410000       0.03640000       0.32000000
    90  H          0.63590000       0.96360000       0.82000000
    91  H          0.36410000       0.46360000       0.68000000
    92  H          0.13590000       0.53640000       0.18000000
    93  H          0.13590000       0.96360000       0.68000000
    94  H          0.36410000       0.03640000       0.18000000
    95  H          0.63590000       0.53640000       0.32000000
    96  H          0.86410000       0.46360000       0.82000000
    97  C          0.02823000       0.10293000       0.40087000
    98  C          0.47177000       0.89707000       0.90087000
    99  C          0.52823000       0.39707000       0.59913000
   100  C          0.97177000       0.60293000       0.09913000
   101  C          0.97177000       0.89707000       0.59913000
   102  C          0.52823000       0.10293000       0.09913000
   103  C          0.47177000       0.60293000       0.40087000
   104  C          0.02823000       0.39707000       0.90087000
   105  C          0.17023000       0.07783000       0.42036000
   106  C          0.32977000       0.92217000       0.92036000
   107  C          0.67023000       0.42217000       0.57964000
   108  C          0.82977000       0.57783000       0.07964000
   109  C          0.82977000       0.92217000       0.57964000
   110  C          0.67023000       0.07783000       0.07964000
   111  C          0.32977000       0.57783000       0.42036000
   112  C          0.17023000       0.42217000       0.92036000
   113  C          0.09823000       0.37213000       0.59658000
   114  C          0.40177000       0.62787000       0.09658000
   115  C          0.59823000       0.12787000       0.40342000
   116  C          0.90177000       0.87213000       0.90342000
   117  C          0.90177000       0.62787000       0.40342000
   118  C          0.59823000       0.37213000       0.90342000
   119  C          0.40177000       0.87213000       0.59658000
   120  C          0.09823000       0.12787000       0.09658000
   121  H          0.13070000       0.46670000       0.56880000
   122  H          0.36930000       0.53330000       0.06880000
   123  H          0.63070000       0.03330000       0.43120000
   124  H          0.86930000       0.96670000       0.93120000
   125  H          0.86930000       0.53330000       0.43120000
   126  H          0.63070000       0.46670000       0.93120000
   127  H          0.36930000       0.96670000       0.56880000
   128  H          0.13070000       0.03330000       0.06880000
   129  H          0.15630000       0.34370000       0.65040000
   130  H          0.34370000       0.65630000       0.15040000
   131  H          0.65630000       0.15630000       0.34960000
   132  H          0.84370000       0.84370000       0.84960000
   133  H          0.84370000       0.65630000       0.34960000
   134  H          0.65630000       0.34370000       0.84960000
   135  H          0.34370000       0.84370000       0.65040000
   136  H          0.15630000       0.15630000       0.15040000
   137  H          0.00490000       0.38520000       0.61900000
   138  H          0.49510000       0.61480000       0.11900000
   139  H          0.50490000       0.11480000       0.38100000
   140  H         -0.00490000       0.88520000       0.88100000
   141  H         -0.00490000       0.61480000       0.38100000
   142  H          0.50490000       0.38520000       0.88100000
   143  H          0.49510000       0.88520000       0.61900000
   144  H          0.00490000       0.11480000       0.11900000
