data_KUTLIW
_symmetry_space_group_name_H-M    'P1'
_symmetry_Int_Tables_number       1
loop_
_symmetry_equiv_pos_site_id
_symmetry_equiv_pos_as_xyz
1 x,y,z
_cell_length_a                   4.87412
_cell_length_b                   31.89051
_cell_length_c                   8.11766
_cell_angle_alpha                90.0
_cell_angle_beta                 104.1537
_cell_angle_gamma                90.0
loop_
_atom_site_label
_atom_site_type_symbol
_atom_site_fract_x
_atom_site_fract_y
_atom_site_fract_z
     1  Br         0.72202000       0.26398300       0.40561130
     2  Br         0.27798000       0.76398300       0.09438870
     3  Br         0.27798000       0.73601700       0.59438870
     4  Br         0.72202000       0.23601700       0.90561130
     5  O          0.42911300       0.00037180       0.71277000
     6  O          0.57088700       0.50037180       0.78723000
     7  O          0.57088700      -0.00037180       0.28723000
     8  O          0.42911300       0.49962820       0.21277000
     9  H          0.53190000       0.99020000       0.65360000
    10  H          0.46810000       0.49020000       0.84640000
    11  H          0.46810000       0.00980000       0.34640000
    12  H          0.53190000       0.50980000       0.15360000
    13  O          0.26461300       0.03699180       0.47427000
    14  O          0.73538700       0.53699180       0.02573000
    15  O          0.73538700       0.96300820       0.52573000
    16  O          0.26461300       0.46300820       0.97427000
    17  N          0.90721600       0.10012000       0.48089000
    18  N          0.09278400       0.60012000       0.01911000
    19  N          0.09278400       0.89988000       0.51911000
    20  N          0.90721600       0.39988000       0.98089000
    21  H          0.01040000       0.08660000       0.42280000
    22  H         -0.01040000       0.58660000       0.07720000
    23  H         -0.01040000       0.91340000       0.57720000
    24  H          0.01040000       0.41340000       0.92280000
    25  C          0.64120000       0.20653000       0.35581200
    26  C          0.35880000       0.70653000       0.14418800
    27  C          0.35880000       0.79347000       0.64418800
    28  C          0.64120000       0.29347000       0.85581200
    29  C          0.39891900       0.19803000       0.22821100
    30  C          0.60108100       0.69803000       0.27178900
    31  C          0.60108100       0.80197000       0.77178900
    32  C          0.39891900       0.30197000       0.72821100
    33  H          0.28600000       0.22030000       0.17030000
    34  H          0.71400000       0.72030000       0.32970000
    35  H          0.71400000       0.77970000       0.82970000
    36  H          0.28600000       0.27970000       0.67030000
    37  C          0.32520000       0.15703000       0.18721200
    38  C          0.67480000       0.65703000       0.31278800
    39  C          0.67480000       0.84297000       0.81278800
    40  C          0.32520000       0.34297000       0.68721200
    41  H          0.15910000       0.15070000       0.10160000
    42  H          0.84090000       0.65070000       0.39840000
    43  H          0.84090000       0.84930000       0.89840000
    44  H          0.15910000       0.34930000       0.60160000
    45  C          0.49641900       0.12473000       0.27231000
    46  C          0.50358100       0.62473000       0.22769000
    47  C          0.50358100       0.87527000       0.72769000
    48  C          0.49641900       0.37527000       0.77231000
    49  H          0.44880000       0.09640000       0.24270000
    50  H          0.55120000       0.59640000       0.25730000
    51  H          0.55120000       0.90360000       0.75730000
    52  H          0.44880000       0.40360000       0.74270000
    53  C          0.73431800       0.13383000       0.39901000
    54  C          0.26568200       0.63383000       0.10099000
    55  C          0.26568200       0.86617000       0.60099000
    56  C          0.73431800       0.36617000       0.89901000
    57  C          0.81771900       0.17543000       0.44331000
    58  C          0.18228100       0.67543000       0.05669000
    59  C          0.18228100       0.82457000       0.55669000
    60  C          0.81771900       0.32457000       0.94331000
    61  C          0.07891900       0.18583000       0.57431200
    62  C          0.92108100       0.68583000       0.92568800
    63  C          0.92108100       0.81417000       0.42568800
    64  C          0.07891900       0.31417000       0.07431200
    65  H          0.16280000       0.21140000       0.54140000
    66  H          0.83720000       0.71140000       0.95860000
    67  H          0.83720000       0.78860000       0.45860000
    68  H          0.16280000       0.28860000       0.04140000
    69  H          0.21430000       0.16270000       0.58440000
    70  H          0.78570000       0.66270000       0.91560000
    71  H          0.78570000       0.83730000       0.41560000
    72  H          0.21430000       0.33730000       0.08440000
    73  H          0.03220000       0.19020000       0.68380000
    74  H         -0.03220000       0.69020000       0.81620000
    75  H         -0.03220000       0.80980000       0.31620000
    76  H          0.03220000       0.30980000       0.18380000
    77  C          0.26801700       0.03032000       0.62571000
    78  C          0.73198300       0.53032000       0.87429000
    79  C          0.73198300       0.96968000       0.37429000
    80  C          0.26801700       0.46968000       0.12571000
    81  C          0.09881800       0.05372000       0.71901000
    82  C          0.90118200       0.55372000       0.78099000
    83  C          0.90118200       0.94628000       0.28099000
    84  C          0.09881800       0.44628000       0.21901000
    85  C          0.92291800       0.08732000       0.64441000
    86  C          0.07708200       0.58732000       0.85559000
    87  C          0.07708200       0.91268000       0.35559000
    88  C          0.92291800       0.41268000       0.14441000
    89  C          0.76031800       0.10803000       0.74301000
    90  C          0.23968200       0.60803000       0.75699000
    91  C          0.23968200       0.89197000       0.25699000
    92  C          0.76031800       0.39197000       0.24301000
    93  H          0.64120000       0.13070000       0.69470000
    94  H          0.35880000       0.63070000       0.80530000
    95  H          0.35880000       0.86930000       0.30530000
    96  H          0.64120000       0.36930000       0.19470000
    97  C          0.77220000       0.09593000       0.90651100
    98  C          0.22780000       0.59593000       0.59348900
    99  C          0.22780000       0.90407000       0.09348900
   100  C          0.77220000       0.40407000       0.40651100
   101  H          0.65750000       0.10970000       0.96900000
   102  H          0.34250000       0.60970000       0.53100000
   103  H          0.34250000       0.89030000       0.03100000
   104  H          0.65750000       0.39030000       0.46900000
   105  C          0.94991800       0.06333000       0.98201000
   106  C          0.05008200       0.56333000       0.51799000
   107  C          0.05008200       0.93667000       0.01799000
   108  C          0.94991800       0.43667000       0.48201000
   109  H          0.95950000       0.05530000       0.09590000
   110  H          0.04050000       0.55530000       0.40410000
   111  H          0.04050000       0.94470000       0.90410000
   112  H          0.95950000       0.44470000       0.59590000
   113  C          0.11281900       0.04283000       0.88891000
   114  C          0.88718100       0.54283000       0.61109000
   115  C          0.88718100       0.95717000       0.11109000
   116  C          0.11281900       0.45717000       0.38891000
   117  H          0.23650000       0.02100000       0.94090000
   118  H          0.76350000       0.52100000       0.55910000
   119  H          0.76350000       0.97900000       0.05910000
   120  H          0.23650000       0.47900000       0.44090000
