data_KUTLIW01
_symmetry_space_group_name_H-M    'P1'
_symmetry_Int_Tables_number       1
loop_
_symmetry_equiv_pos_site_id
_symmetry_equiv_pos_as_xyz
1 x,y,z
_cell_length_a                   3.890301
_cell_length_b                   22.19514
_cell_length_c                   14.33021
_cell_angle_alpha                90.0
_cell_angle_beta                 94.9917
_cell_angle_gamma                90.0
loop_
_atom_site_label
_atom_site_type_symbol
_atom_site_fract_x
_atom_site_fract_y
_atom_site_fract_z
     1  N          0.52018000       0.36337130       0.32602000
     2  N         -0.02018000       0.86337130       0.17398000
     3  N          0.47982000       0.63662870       0.67398000
     4  N          0.02018000       0.13662870       0.82602000
     5  H          0.60010000       0.37421800       0.37430000
     6  H          0.89990000       0.87421800       0.12570000
     7  H          0.39990000       0.62578200       0.62570000
     8  H          0.10010000       0.12578200       0.87430000
     9  Br         0.11658800       0.16333214       0.48034200
    10  Br         0.38341200       0.66333214       0.01965800
    11  Br         0.88341200       0.83666786       0.51965800
    12  Br         0.61658800       0.33666786       0.98034200
    13  O          0.89757000       0.53759100       0.38583180
    14  O          0.60243000       0.03759100       0.11416820
    15  O          0.10243000       0.46240900       0.61416820
    16  O          0.39757000       0.96240900       0.88583180
    17  O          0.80577000       0.44588100       0.44247160
    18  O          0.69423000       0.94588100       0.05752840
    19  O          0.19423000       0.55411900       0.55752840
    20  O          0.30577000       0.05411900       0.94247160
    21  C          0.77688000       0.48216140       0.37662000
    22  C          0.72312000       0.98216140       0.12338000
    23  C          0.22312000       0.51783860       0.62338000
    24  C          0.27688000       0.01783860       0.87662000
    25  C          0.60408000       0.46790140       0.28372000
    26  C          0.89592000       0.96790140       0.21628000
    27  C          0.39592000       0.53209860       0.71628000
    28  C          0.10408000       0.03209860       0.78372000
    29  C          0.56278000       0.51369140       0.21632000
    30  C          0.93722000       0.01369140       0.28368000
    31  C          0.43722000       0.48630860       0.78368000
    32  C          0.06278000       0.98630860       0.71632000
    33  H          0.65410000       0.55260000       0.23080000
    34  H          0.84590000       0.05260000       0.26920000
    35  H          0.34590000       0.44740000       0.76920000
    36  H          0.15410000       0.94740000       0.73080000
    37  C          0.39298000       0.50341150       0.12992000
    38  C          0.10702000       0.00341150       0.37008000
    39  C          0.60702000       0.49658850       0.87008000
    40  C          0.89298000      -0.00341150       0.62992000
    41  H          0.37160000       0.53460000       0.08430000
    42  H          0.12840000       0.03460000       0.41570000
    43  H          0.62840000       0.46540000       0.91570000
    44  H          0.87160000       0.96540000       0.58430000
    45  C          0.25248000       0.44683140       0.10972000
    46  C          0.24752000       0.94683140       0.39028000
    47  C          0.74752000       0.55316860       0.89028000
    48  C          0.75248000       0.05316860       0.60972000
    49  H          0.12690000       0.44000000       0.05080000
    50  H          0.37310000       0.94000000       0.44920000
    51  H          0.87310000       0.56000000       0.94920000
    52  H          0.62690000       0.06000000       0.55080000
    53  C          0.29138000       0.40047140       0.17352000
    54  C          0.20862000       0.90047140       0.32648000
    55  C          0.70862000       0.59952860       0.82648000
    56  C          0.79138000       0.09952860       0.67352000
    57  H          0.19270000       0.36220000       0.15800000
    58  H          0.30730000       0.86220000       0.34200000
    59  H          0.80730000       0.63780000       0.84200000
    60  H          0.69270000       0.13780000       0.65800000
    61  C          0.47618000       0.40907140       0.26162000
    62  C          0.02382000       0.90907140       0.23838000
    63  C          0.52382000       0.59092860       0.73838000
    64  C         -0.02382000       0.09092860       0.76162000
    65  C          0.45028000       0.30175140       0.31462000
    66  C          0.04972000       0.80175140       0.18538000
    67  C          0.54972000       0.69824860       0.68538000
    68  C          0.95028000       0.19824860       0.81462000
    69  C          0.52698000       0.27063150       0.23432000
    70  C         -0.02698000       0.77063150       0.26568000
    71  C          0.47302000       0.72936850       0.76568000
    72  C          0.02698000       0.22936850       0.73432000
    73  H          0.61750000       0.29180000       0.18430000
    74  H          0.88250000       0.79180000       0.31570000
    75  H          0.38250000       0.70820000       0.81570000
    76  H          0.11750000       0.20820000       0.68430000
    77  C          0.47148000       0.20916150       0.22722000
    78  C          0.02852000       0.70916150       0.27278000
    79  C          0.52852000       0.79083850       0.77278000
    80  C         -0.02852000       0.29083850       0.72722000
    81  H          0.51940000       0.18860000       0.17170000
    82  H         -0.01940000       0.68860000       0.32830000
    83  H          0.48060000       0.81140000       0.82830000
    84  H          0.01940000       0.31140000       0.67170000
    85  C          0.34698000       0.17739150       0.30012000
    86  C          0.15302000       0.67739150       0.19988000
    87  C          0.65302000       0.82260850       0.69988000
    88  C          0.84698000       0.32260850       0.80012000
    89  H          0.31010000       0.13510000       0.29560000
    90  H          0.18990000       0.63510000       0.20440000
    91  H          0.68990000       0.86490000       0.70440000
    92  H          0.81010000       0.36490000       0.79560000
    93  C          0.27708000       0.20868140       0.38012000
    94  C          0.22292000       0.70868140       0.11988000
    95  C          0.72292000       0.79131860       0.61988000
    96  C          0.77708000       0.29131860       0.88012000
    97  C          0.32188000       0.27076140       0.39022000
    98  C          0.17812000       0.77076140       0.10978000
    99  C          0.67812000       0.72923860       0.60978000
   100  C          0.82188000       0.22923860       0.89022000
   101  C          0.23819000       0.30302150       0.47802000
   102  C          0.26181000       0.80302150       0.02198000
   103  C          0.76181000       0.69697850       0.52198000
   104  C          0.73819000       0.19697850       0.97802000
   105  H          0.02090000       0.28740000       0.49820000
   106  H          0.47910000       0.78740000       0.00180000
   107  H         -0.02090000       0.71260000       0.50180000
   108  H          0.52090000       0.21260000      -0.00180000
   109  H          0.21500000       0.34630000       0.46520000
   110  H          0.28500000       0.84630000       0.03480000
   111  H          0.78500000       0.65370000       0.53480000
   112  H          0.71500000       0.15370000       0.96520000
   113  H          0.42410000       0.29630000       0.52750000
   114  H          0.07590000       0.79630000       0.97250000
   115  H          0.57590000       0.70370000       0.47250000
   116  H          0.92410000       0.20370000       0.02750000
   117  H         -0.01587000       0.54020000       0.43940000
   118  H          0.51587000       0.04020000       0.06060000
   119  H          0.01587000       0.45980000       0.56060000
   120  H          0.48413000       0.95980000       0.93940000
