data_KUTLIW02
_symmetry_space_group_name_H-M    'P1'
_symmetry_Int_Tables_number       1
loop_
_symmetry_equiv_pos_site_id
_symmetry_equiv_pos_as_xyz
1 x,y,z
_cell_length_a                   11.365511
_cell_length_b                   7.60456
_cell_length_c                   29.5402
_cell_angle_alpha                90.0
_cell_angle_beta                 95.3857
_cell_angle_gamma                90.0
loop_
_atom_site_label
_atom_site_type_symbol
_atom_site_fract_x
_atom_site_fract_y
_atom_site_fract_z
     1  Br         0.23946800       0.36749100       0.23972300
     2  Br         0.76053200       0.36749100       0.26027700
     3  Br         0.73946800       0.86749100       0.23972300
     4  Br         0.26053200       0.86749100       0.26027700
     5  Br         0.76053200       0.63250900       0.76027700
     6  Br         0.23946800       0.63250900       0.73972300
     7  Br         0.26053200       0.13250900       0.76027700
     8  Br         0.73946800       0.13250900       0.73972300
     9  O          0.46114000       0.76465000      -0.00335160
    10  O          0.53886000       0.76465000       0.50335160
    11  O          0.96114000       0.26465000      -0.00335160
    12  O          0.03886000       0.26465000       0.50335160
    13  O          0.53886000       0.23535000       0.00335160
    14  O          0.46114000       0.23535000       0.49664840
    15  O          0.03886000       0.73535000       0.00335160
    16  O          0.96114000       0.73535000       0.49664840
    17  H          0.50370000       0.84230000       0.98630000
    18  H          0.49630000       0.84230000       0.51370000
    19  H          0.00370000       0.34230000       0.98630000
    20  H         -0.00370000       0.34230000       0.51370000
    21  H          0.49630000       0.15770000       0.01370000
    22  H          0.50370000       0.15770000       0.48630000
    23  H         -0.00370000       0.65770000       0.01370000
    24  H          0.00370000       0.65770000       0.48630000
    25  O          0.42174000      -0.01474000       0.04244160
    26  O          0.57826000      -0.01474000       0.45755840
    27  O          0.92174000       0.48526000       0.04244160
    28  O          0.07826000       0.48526000       0.45755840
    29  O          0.57826000       0.01474000       0.95755840
    30  O          0.42174000       0.01474000       0.54244160
    31  O          0.07826000       0.51474000       0.95755840
    32  O          0.92174000       0.51474000       0.54244160
    33  N          0.27045000       0.92737000       0.10322000
    34  N          0.72955000       0.92737000       0.39678000
    35  N          0.77045000       0.42737000       0.10322000
    36  N          0.22955000       0.42737000       0.39678000
    37  N          0.72955000       0.07263000       0.89678000
    38  N          0.27045000       0.07263000       0.60322000
    39  N          0.22955000       0.57263000       0.89678000
    40  N          0.77045000       0.57263000       0.60322000
    41  H          0.32660000      -0.00750000       0.09340000
    42  H          0.67340000      -0.00750000       0.40660000
    43  H          0.82660000       0.49250000       0.09340000
    44  H          0.17340000       0.49250000       0.40660000
    45  H          0.67340000       0.00750000       0.90660000
    46  H          0.32660000       0.00750000       0.59340000
    47  H          0.17340000       0.50750000       0.90660000
    48  H          0.82660000       0.50750000       0.59340000
    49  C          0.17588000       0.20869000       0.19392000
    50  C          0.82412000       0.20869000       0.30608000
    51  C          0.67588000       0.70869000       0.19392000
    52  C          0.32412000       0.70869000       0.30608000
    53  C          0.82412000       0.79131000       0.80608000
    54  C          0.17588000       0.79131000       0.69392000
    55  C          0.32412000       0.29131000       0.80608000
    56  C          0.67588000       0.29131000       0.69392000
    57  C          0.05477000       0.18779000       0.18903000
    58  C          0.94523000       0.18779000       0.31097000
    59  C          0.55477000       0.68779000       0.18903000
    60  C          0.44523000       0.68779000       0.31097000
    61  C          0.94523000       0.81221000       0.81097000
    62  C          0.05477000       0.81221000       0.68903000
    63  C          0.44523000       0.31221000       0.81097000
    64  C          0.55477000       0.31221000       0.68903000
    65  H          0.00620000       0.24720000       0.20860000
    66  H         -0.00620000       0.24720000       0.29140000
    67  H          0.50620000       0.74720000       0.20860000
    68  H          0.49380000       0.74720000       0.29140000
    69  H         -0.00620000       0.75280000       0.79140000
    70  H          0.00620000       0.75280000       0.70860000
    71  H          0.49380000       0.25280000       0.79140000
    72  H          0.50620000       0.25280000       0.70860000
    73  C          0.00617000       0.07879000       0.15523000
    74  C         -0.00617000       0.07879000       0.34477000
    75  C          0.50617000       0.57879000       0.15523000
    76  C          0.49383000       0.57879000       0.34477000
    77  C         -0.00617000       0.92121000       0.84477000
    78  C          0.00617000       0.92121000       0.65523000
    79  C          0.49383000       0.42121000       0.84477000
    80  C          0.50617000       0.42121000       0.65523000
    81  H          0.92290000       0.06280000       0.15130000
    82  H          0.07710000       0.06280000       0.34870000
    83  H          0.42290000       0.56280000       0.15130000
    84  H          0.57710000       0.56280000       0.34870000
    85  H          0.07710000       0.93720000       0.84870000
    86  H          0.92290000       0.93720000       0.65130000
    87  H          0.57710000       0.43720000       0.84870000
    88  H          0.42290000       0.43720000       0.65130000
    89  C          0.07636000      -0.00751000       0.12703000
    90  C          0.92364000      -0.00751000       0.37297000
    91  C          0.57636000       0.49249000       0.12703000
    92  C          0.42364000       0.49249000       0.37297000
    93  C          0.92364000       0.00751000       0.87297000
    94  C          0.07636000       0.00751000       0.62703000
    95  C          0.42364000       0.50751000       0.87297000
    96  C          0.57636000       0.50751000       0.62703000
    97  H          0.04110000       0.92070000       0.10310000
    98  H          0.95890000       0.92070000       0.39690000
    99  H          0.54110000       0.42070000       0.10310000
   100  H          0.45890000       0.42070000       0.39690000
   101  H          0.95890000       0.07930000       0.89690000
   102  H          0.04110000       0.07930000       0.60310000
   103  H          0.45890000       0.57930000       0.89690000
   104  H          0.54110000       0.57930000       0.60310000
   105  C          0.19806000       0.00929000       0.13313000
   106  C          0.80194000       0.00929000       0.36687000
   107  C          0.69806000       0.50929000       0.13313000
   108  C          0.30194000       0.50929000       0.36687000
   109  C          0.80194000      -0.00929000       0.86687000
   110  C          0.19806000      -0.00929000       0.63313000
   111  C          0.30194000       0.49071000       0.86687000
   112  C          0.69806000       0.49071000       0.63313000
   113  C          0.25087000       0.12058000       0.16713000
   114  C          0.74913000       0.12058000       0.33287000
   115  C          0.75087000       0.62058000       0.16713000
   116  C          0.24913000       0.62058000       0.33287000
   117  C          0.74913000       0.87942000       0.83287000
   118  C          0.25087000       0.87942000       0.66713000
   119  C          0.24913000       0.37942000       0.83287000
   120  C          0.75087000       0.37942000       0.66713000
   121  C          0.38406000       0.14007000       0.17223000
   122  C          0.61594000       0.14007000       0.32777000
   123  C          0.88406000       0.64007000       0.17223000
   124  C          0.11594000       0.64007000       0.32777000
   125  C          0.61594000       0.85993000       0.82777000
   126  C          0.38406000       0.85993000       0.67223000
   127  C          0.11594000       0.35993000       0.82777000
   128  C          0.88406000       0.35993000       0.67223000
   129  H          0.40860000       0.21320000       0.14750000
   130  H          0.59140000       0.21320000       0.35250000
   131  H          0.90860000       0.71320000       0.14750000
   132  H          0.09140000       0.71320000       0.35250000
   133  H          0.59140000       0.78680000       0.85250000
   134  H          0.40860000       0.78680000       0.64750000
   135  H          0.09140000       0.28680000       0.85250000
   136  H          0.90860000       0.28680000       0.64750000
   137  H          0.42070000       0.02370000       0.17100000
   138  H          0.57930000       0.02370000       0.32900000
   139  H          0.92070000       0.52370000       0.17100000
   140  H          0.07930000       0.52370000       0.32900000
   141  H          0.57930000       0.97630000       0.82900000
   142  H          0.42070000       0.97630000       0.67100000
   143  H          0.07930000       0.47630000       0.82900000
   144  H          0.92070000       0.47630000       0.67100000
   145  H          0.40880000       0.19570000       0.20150000
   146  H          0.59120000       0.19570000       0.29850000
   147  H          0.90880000       0.69570000       0.20150000
   148  H          0.09120000       0.69570000       0.29850000
   149  H          0.59120000       0.80430000       0.79850000
   150  H          0.40880000       0.80430000       0.70150000
   151  H          0.09120000       0.30430000       0.79850000
   152  H          0.90880000       0.30430000       0.70150000
   153  C          0.40656000       0.83121000       0.03063000
   154  C          0.59344000       0.83121000       0.46937000
   155  C          0.90656000       0.33121000       0.03063000
   156  C          0.09344000       0.33121000       0.46937000
   157  C          0.59344000       0.16879000       0.96937000
   158  C          0.40656000       0.16879000       0.53063000
   159  C          0.09344000       0.66879000       0.96937000
   160  C          0.90656000       0.66879000       0.53063000
   161  C          0.33116000       0.70439000       0.05202000
   162  C          0.66884000       0.70439000       0.44798000
   163  C          0.83116000       0.20439000       0.05202000
   164  C          0.16884000       0.20439000       0.44798000
   165  C          0.66884000       0.29561000       0.94798000
   166  C          0.33116000       0.29561000       0.55202000
   167  C          0.16884000       0.79561000       0.94798000
   168  C          0.83116000       0.79561000       0.55202000
   169  C          0.26316000       0.75571000       0.08762000
   170  C          0.73684000       0.75571000       0.41238000
   171  C          0.76316000       0.25571000       0.08762000
   172  C          0.23684000       0.25571000       0.41238000
   173  C          0.73684000       0.24429000       0.91238000
   174  C          0.26316000       0.24429000       0.58762000
   175  C          0.23684000       0.74429000       0.91238000
   176  C          0.76316000       0.74429000       0.58762000
   177  C          0.19206000       0.63258000       0.10663000
   178  C          0.80794000       0.63258000       0.39337000
   179  C          0.69206000       0.13258000       0.10663000
   180  C          0.30794000       0.13258000       0.39337000
   181  C          0.80794000       0.36742000       0.89337000
   182  C          0.19206000       0.36742000       0.60663000
   183  C          0.30794000       0.86742000       0.89337000
   184  C          0.69206000       0.86742000       0.60663000
   185  H          0.14510000       0.66640000       0.13010000
   186  H          0.85490000       0.66640000       0.36990000
   187  H          0.64510000       0.16640000       0.13010000
   188  H          0.35490000       0.16640000       0.36990000
   189  H          0.85490000       0.33360000       0.86990000
   190  H          0.14510000       0.33360000       0.63010000
   191  H          0.35490000       0.83360000       0.86990000
   192  H          0.64510000       0.83360000       0.63010000
   193  C          0.18986000       0.46161000       0.09143000
   194  C          0.81014000       0.46161000       0.40857000
   195  C          0.68986000       0.96161000       0.09143000
   196  C          0.31014000       0.96161000       0.40857000
   197  C          0.81014000       0.53839000       0.90857000
   198  C          0.18986000       0.53839000       0.59143000
   199  C          0.31014000       0.03839000       0.90857000
   200  C          0.68986000       0.03839000       0.59143000
   201  H          0.14220000       0.37810000       0.10510000
   202  H          0.85780000       0.37810000       0.39490000
   203  H          0.64220000       0.87810000       0.10510000
   204  H          0.35780000       0.87810000       0.39490000
   205  H          0.85780000       0.62190000       0.89490000
   206  H          0.14220000       0.62190000       0.60510000
   207  H          0.35780000       0.12190000       0.89490000
   208  H          0.64220000       0.12190000       0.60510000
   209  C          0.25546000       0.40719000       0.05643000
   210  C          0.74454000       0.40719000       0.44357000
   211  C          0.75546000       0.90719000       0.05643000
   212  C          0.24454000       0.90719000       0.44357000
   213  C          0.74454000       0.59281000       0.94357000
   214  C          0.25546000       0.59281000       0.55643000
   215  C          0.24454000       0.09281000       0.94357000
   216  C          0.75546000       0.09281000       0.55643000
   217  H          0.25100000       0.28920000       0.04570000
   218  H          0.74900000       0.28920000       0.45430000
   219  H          0.75100000       0.78920000       0.04570000
   220  H          0.24900000       0.78920000       0.45430000
   221  H          0.74900000       0.71080000       0.95430000
   222  H          0.25100000       0.71080000       0.54570000
   223  H          0.24900000       0.21080000       0.95430000
   224  H          0.75100000       0.21080000       0.54570000
   225  C          0.32646000       0.52769000       0.03773000
   226  C          0.67354000       0.52769000       0.46227000
   227  C          0.82646000       0.02769000       0.03773000
   228  C          0.17354000       0.02769000       0.46227000
   229  C          0.67354000       0.47231000       0.96227000
   230  C          0.32646000       0.47231000       0.53773000
   231  C          0.17354000       0.97231000       0.96227000
   232  C          0.82646000       0.97231000       0.53773000
   233  H          0.37360000       0.49100000       0.01450000
   234  H          0.62640000       0.49100000       0.48550000
   235  H          0.87360000      -0.00900000       0.01450000
   236  H          0.12640000      -0.00900000       0.48550000
   237  H          0.62640000       0.50900000       0.98550000
   238  H          0.37360000       0.50900000       0.51450000
   239  H          0.12640000       0.00900000       0.98550000
   240  H          0.87360000       0.00900000       0.51450000
