data_KUVWON01
_symmetry_space_group_name_H-M    'P1'
_symmetry_Int_Tables_number       1
loop_
_symmetry_equiv_pos_site_id
_symmetry_equiv_pos_as_xyz
1 x,y,z
_cell_length_a                   8.8072
_cell_length_b                   10.6876
_cell_length_c                   16.2633
_cell_angle_alpha                100.973
_cell_angle_beta                 91.472
_cell_angle_gamma                113.023
loop_
_atom_site_label
_atom_site_type_symbol
_atom_site_fract_x
_atom_site_fract_y
_atom_site_fract_z
     1  O          0.41832000       0.64001000       0.19491000
     2  O          0.58168000       0.35999000       0.80509000
     3  H          0.51492400       0.63063100       0.21301700
     4  H          0.48507600       0.36936900       0.78698300
     5  C          0.47002000       0.77882000       0.18151000
     6  C          0.52998000       0.22118000       0.81849000
     7  O          0.27682000       0.37582000       0.75191000
     8  O          0.72318000       0.62418000       0.24809000
     9  H          0.18763000       0.33773400       0.78781700
    10  H          0.81237000       0.66226600       0.21218300
    11  C          0.22253000       0.45192000       0.70181000
    12  C          0.77747000       0.54808000       0.29819000
    13  C          0.55292000       0.79072000       0.10021000
    14  C          0.44708000       0.20928000       0.89979000
    15  C          0.59213000       0.90912000       0.06751000
    16  C          0.40787000       0.09088000       0.93249000
    17  C          0.66353000       0.91922000      -0.00681000
    18  C          0.33647000       0.08078000       0.00681000
    19  C          0.69663000       0.81022000       0.94959000
    20  C          0.30337000       0.18978000       0.05041000
    21  C          0.65833000       0.69242000       0.98079000
    22  C          0.34167000       0.30758000       0.01921000
    23  C          0.58763000       0.68242000       0.05561000
    24  C          0.41237000       0.31758000       0.94439000
    25  C          0.31072000       0.80252000       0.17021000
    26  C          0.68928000       0.19748000       0.82979000
    27  C          0.17323000       0.69602000       0.12081000
    28  C          0.82677000       0.30398000       0.87919000
    29  C          0.03103000       0.71653000       0.10442000
    30  C          0.96897000       0.28347000       0.89558000
    31  C          0.02233000       0.84163000       0.13772000
    32  C         -0.02233000       0.15837000       0.86228000
    33  C          0.15673000       0.94643000       0.18792000
    34  C          0.84327000       0.05357000       0.81208000
    35  C          0.30033000       0.92722000       0.20351000
    36  C          0.69967000       0.07278000       0.79649000
    37  C          0.15123000       0.54022000       0.75981000
    38  C          0.84877000       0.45978000       0.24019000
    39  C          0.00033000       0.54522000       0.74161000
    40  C         -0.00033000       0.45478000       0.25839000
    41  C          0.94643000       0.63143000       0.79672000
    42  C          0.05357000       0.36857000       0.20328000
    43  C          0.04233000       0.71103000       0.87122000
    44  C          0.95767000       0.28897000       0.12878000
    45  C          0.19033000       0.70453000       0.88992000
    46  C          0.80967000       0.29547000       0.11008000
    47  C          0.24663000       0.62102000       0.83541000
    48  C          0.75337000       0.37898000       0.16459000
    49  C          0.37693000       0.54242000       0.66701000
    50  C          0.62307000       0.45758000       0.33299000
    51  C          0.40403000       0.67692000       0.65952000
    52  C          0.59597000       0.32308000       0.34048000
    53  C          0.54023000       0.75362000       0.62222000
    54  C          0.45977000       0.24638000       0.37778000
    55  C          0.64953000       0.69863000       0.59272000
    56  C          0.35047000       0.30137000       0.40728000
    57  C          0.62373000       0.56493000       0.60022000
    58  C          0.37627000       0.43507000       0.39978000
    59  C          0.48733000       0.48762000       0.63631000
    60  C          0.51267000       0.51238000       0.36369000
    61  C          0.58362000       0.87972000       0.26001000
    62  C          0.41638000       0.12028000       0.73999000
    63  C          0.73593000      -0.01438000       0.25741000
    64  C          0.26407000       0.01438000       0.74259000
    65  C          0.83143000       0.07392000       0.33101000
    66  C          0.16857000       0.92608000       0.66899000
    67  C          0.77863000       0.05922000       0.40931000
    68  C          0.22137000       0.94078000       0.59069000
    69  C          0.62663000       0.95052000       0.41231000
    70  C          0.37337000       0.04948000       0.58769000
    71  C          0.53073000       0.86452000       0.33891000
    72  C          0.46927000       0.13548000       0.66109000
    73  C          0.09753000       0.34762000       0.62751000
    74  C          0.90247000       0.65238000       0.37249000
    75  C          0.07313000       0.39032000       0.55471000
    76  C          0.92687000       0.60968000       0.44529000
    77  C          0.96733000       0.29752000       0.48581000
    78  C          0.03267000       0.70248000       0.51419000
    79  C          0.88213000       0.15762000       0.48671000
    80  C          0.11787000       0.84238000       0.51329000
    81  C          0.90493000       0.11592000       0.55971000
    82  C          0.09507000       0.88408000       0.44029000
    83  C          0.01093000       0.20922000       0.62871000
    84  C         -0.01093000       0.79078000       0.37129000
    85  H          0.56833000      -0.01138000       0.09851000
    86  H          0.43167000       0.01138000       0.90149000
    87  H          0.69123000       0.00562000       0.97089000
    88  H          0.30877000      -0.00562000       0.02911000
    89  H          0.74803000       0.81722000       0.89559000
    90  H          0.25197000       0.18278000       0.10441000
    91  H          0.68173000       0.61302000       0.94939000
    92  H          0.31827000       0.38698000       0.05061000
    93  H          0.56113000       0.59602000       0.07781000
    94  H          0.43887000       0.40398000       0.92219000
    95  H          0.17733000       0.60392000       0.09701000
    96  H          0.82267000       0.39608000       0.90299000
    97  H          0.93337000       0.63983000       0.06792000
    98  H          0.06663000       0.36017000       0.93208000
    99  H          0.91927000       0.85613000       0.12582000
   100  H          0.08073000       0.14387000       0.87418000
   101  H          0.15073000       0.03693000       0.21342000
   102  H          0.84927000       0.96307000       0.78658000
   103  H          0.39803000       0.00482000       0.23931000
   104  H          0.60197000      -0.00482000       0.76069000
   105  H          0.92893000       0.48632000       0.68821000
   106  H          0.07107000       0.51368000       0.31179000
   107  H          0.83783000       0.63573000       0.78242000
   108  H          0.16217000       0.36427000       0.21758000
   109  H          0.00363000       0.77293000       0.91122000
   110  H         -0.00363000       0.22707000       0.08878000
   111  H          0.25933000       0.76133000       0.94432000
   112  H          0.74067000       0.23867000       0.05568000
   113  H          0.35623000       0.61872000       0.85001000
   114  H          0.64377000       0.38128000       0.14999000
   115  H          0.32533000       0.71872000       0.68102000
   116  H          0.67467000       0.28128000       0.31898000
   117  H          0.55813000       0.84992000       0.61712000
   118  H          0.44187000       0.15008000       0.38288000
   119  H          0.74723000       0.75423000       0.56592000
   120  H          0.25277000       0.24577000       0.43408000
   121  H          0.70393000       0.52403000       0.57952000
   122  H          0.29607000       0.47597000       0.42048000
   123  H          0.46873000       0.39042000       0.64021000
   124  H          0.53127000       0.60958000       0.35979000
   125  H          0.77783000      -0.00118000       0.20171000
   126  H          0.22217000       0.00118000       0.79829000
   127  H          0.94083000       0.14972000       0.32741000
   128  H          0.05917000       0.85028000       0.67259000
   129  H          0.58703000       0.93482000       0.46811000
   130  H          0.41297000       0.06518000       0.53189000
   131  H          0.42053000       0.78952000       0.34261000
   132  H          0.57947000       0.21048000       0.65739000
   133  H          0.13323000       0.49032000       0.55221000
   134  H          0.86677000       0.50968000       0.44779000
   135  H          0.95183000       0.33152000       0.43441000
   136  H          0.04817000       0.66848000       0.56559000
   137  H          0.84353000       0.01632000       0.56261000
   138  H          0.15647000      -0.01632000       0.43739000
   139  H          0.02503000       0.17552000       0.68061000
   140  H          0.97497000       0.82448000       0.31939000
