data_KUVWON
_symmetry_space_group_name_H-M    'P1'
_symmetry_Int_Tables_number       1
loop_
_symmetry_equiv_pos_site_id
_symmetry_equiv_pos_as_xyz
1 x,y,z
_cell_length_a                   16.8272
_cell_length_b                   15.2123
_cell_length_c                   10.7082
_cell_angle_alpha                90.0
_cell_angle_beta                 97.011
_cell_angle_gamma                90.0
loop_
_atom_site_label
_atom_site_type_symbol
_atom_site_fract_x
_atom_site_fract_y
_atom_site_fract_z
     1  O          0.30241000       0.06431000       0.07232000
     2  O          0.80241000       0.56431000       0.07232000
     3  O          0.69759000       0.06431000       0.42768000
     4  O          0.19759000       0.56431000       0.42768000
     5  O          0.69759000       0.93569000       0.92768000
     6  O          0.19759000       0.43569000       0.92768000
     7  O          0.30241000       0.93569000       0.57232000
     8  O          0.80241000       0.43569000       0.57232000
     9  H          0.35651300       0.06153000       0.04362000
    10  H          0.85651300       0.56153000       0.04362000
    11  H          0.64348700       0.06153000       0.45638000
    12  H          0.14348700       0.56153000       0.45638000
    13  H          0.64348700       0.93847000       0.95638000
    14  H          0.14348700       0.43847000       0.95638000
    15  H          0.35651300       0.93847000       0.54362000
    16  H          0.85651300       0.43847000       0.54362000
    17  C          0.29801000       0.06942000       0.20502000
    18  C          0.79801000       0.56942000       0.20502000
    19  C          0.70199000       0.06942000       0.29498000
    20  C          0.20199000       0.56942000       0.29498000
    21  C          0.70199000       0.93058000       0.79498000
    22  C          0.20199000       0.43058000       0.79498000
    23  C          0.29801000       0.93058000       0.70502000
    24  C          0.79801000       0.43058000       0.70502000
    25  C          0.33271000       0.15772000       0.25772000
    26  C          0.83271000       0.65772000       0.25772000
    27  C          0.66729000       0.15772000       0.24228000
    28  C          0.16729000       0.65772000       0.24228000
    29  C          0.66729000       0.84228000       0.74228000
    30  C          0.16729000       0.34228000       0.74228000
    31  C          0.33271000       0.84228000       0.75772000
    32  C          0.83271000       0.34228000       0.75772000
    33  C          0.36012000       0.21972000       0.18053000
    34  C          0.86012000       0.71972000       0.18053000
    35  C          0.63988000       0.21972000       0.31947000
    36  C          0.13988000       0.71972000       0.31947000
    37  C          0.63988000       0.78028000       0.81947000
    38  C          0.13988000       0.28028000       0.81947000
    39  C          0.36012000       0.78028000       0.68053000
    40  C          0.86012000       0.28028000       0.68053000
    41  C          0.39062000       0.29912000       0.22853000
    42  C          0.89062000       0.79912000       0.22853000
    43  C          0.60938000       0.29912000       0.27147000
    44  C          0.10938000       0.79912000       0.27147000
    45  C          0.60938000       0.70088000       0.77147000
    46  C          0.10938000       0.20088000       0.77147000
    47  C          0.39062000       0.70088000       0.72853000
    48  C          0.89062000       0.20088000       0.72853000
    49  C          0.39222000       0.31812000       0.35323000
    50  C          0.89222000       0.81812000       0.35323000
    51  C          0.60778000       0.31812000       0.14677000
    52  C          0.10778000       0.81812000       0.14677000
    53  C          0.60778000       0.68188000       0.64677000
    54  C          0.10778000       0.18188000       0.64677000
    55  C          0.39222000       0.68188000       0.85323000
    56  C          0.89222000       0.18188000       0.85323000
    57  C          0.36472000       0.25752000       0.43183000
    58  C          0.86472000       0.75752000       0.43183000
    59  C          0.63528000       0.25752000       0.06817000
    60  C          0.13528000       0.75752000       0.06817000
    61  C          0.63528000       0.74248000       0.56817000
    62  C          0.13528000       0.24248000       0.56817000
    63  C          0.36472000       0.74248000       0.93183000
    64  C          0.86472000       0.24248000       0.93183000
    65  C          0.33472000       0.17722000       0.38493000
    66  C          0.83472000       0.67722000       0.38493000
    67  C          0.66528000       0.17722000       0.11507000
    68  C          0.16528000       0.67722000       0.11507000
    69  C          0.66528000       0.82278000       0.61507000
    70  C          0.16528000       0.32278000       0.61507000
    71  C          0.33472000       0.82278000       0.88493000
    72  C          0.83472000       0.32278000       0.88493000
    73  C          0.34262000       0.98928000       0.26583000
    74  C          0.84262000       0.48928000       0.26583000
    75  C          0.65738000       0.98928000       0.23417000
    76  C          0.15738000       0.48928000       0.23417000
    77  C          0.65738000       0.01072000       0.73417000
    78  C          0.15738000       0.51072000       0.73417000
    79  C          0.34262000       0.01072000       0.76583000
    80  C          0.84262000       0.51072000       0.76583000
    81  C          0.31032000       0.90618000       0.24043000
    82  C          0.81032000       0.40618000       0.24043000
    83  C          0.68968000       0.90618000       0.25957000
    84  C          0.18968000       0.40618000       0.25957000
    85  C          0.68968000       0.09382000       0.75957000
    86  C          0.18968000       0.59382000       0.75957000
    87  C          0.31032000       0.09382000       0.74043000
    88  C          0.81032000       0.59382000       0.74043000
    89  C          0.35042000       0.83128000       0.28553000
    90  C          0.85042000       0.33128000       0.28553000
    91  C          0.64958000       0.83128000       0.21447000
    92  C          0.14958000       0.33128000       0.21447000
    93  C          0.64958000       0.16872000       0.71447000
    94  C          0.14958000       0.66872000       0.71447000
    95  C          0.35042000       0.16872000       0.78553000
    96  C          0.85042000       0.66872000       0.78553000
    97  C          0.42462000       0.83798000       0.35623000
    98  C          0.92462000       0.33798000       0.35623000
    99  C          0.57538000       0.83798000       0.14377000
   100  C          0.07538000       0.33798000       0.14377000
   101  C          0.57538000       0.16202000       0.64377000
   102  C          0.07538000       0.66202000       0.64377000
   103  C          0.42462000       0.16202000       0.85623000
   104  C          0.92462000       0.66202000       0.85623000
   105  C          0.45802000       0.91928000       0.37983000
   106  C          0.95802000       0.41928000       0.37983000
   107  C          0.54198000       0.91928000       0.12017000
   108  C          0.04198000       0.41928000       0.12017000
   109  C          0.54198000       0.08072000       0.62017000
   110  C          0.04198000       0.58072000       0.62017000
   111  C          0.45802000       0.08072000       0.87983000
   112  C          0.95802000       0.58072000       0.87983000
   113  C          0.41732000      -0.00522000       0.33503000
   114  C          0.91732000       0.49478000       0.33503000
   115  C          0.58268000      -0.00522000       0.16497000
   116  C          0.08268000       0.49478000       0.16497000
   117  C          0.58268000       0.00522000       0.66497000
   118  C          0.08268000       0.50522000       0.66497000
   119  C          0.41732000       0.00522000       0.83503000
   120  C          0.91732000       0.50522000       0.83503000
   121  C          0.20871000       0.06742000       0.21862000
   122  C          0.70871000       0.56742000       0.21862000
   123  C          0.79129000       0.06742000       0.28138000
   124  C          0.29129000       0.56742000       0.28138000
   125  C          0.79129000       0.93258000       0.78138000
   126  C          0.29129000       0.43258000       0.78138000
   127  C          0.20871000       0.93258000       0.71862000
   128  C          0.70871000       0.43258000       0.71862000
   129  C          0.15272000       0.09612000       0.12062000
   130  C          0.65272000       0.59612000       0.12062000
   131  C          0.84728000       0.09612000       0.37938000
   132  C          0.34728000       0.59612000       0.37938000
   133  C          0.84728000       0.90388000       0.87938000
   134  C          0.34728000       0.40388000       0.87938000
   135  C          0.15272000       0.90388000       0.62062000
   136  C          0.65272000       0.40388000       0.62062000
   137  C          0.07182000       0.09642000       0.13282000
   138  C          0.57182000       0.59642000       0.13282000
   139  C          0.92818000       0.09642000       0.36718000
   140  C          0.42818000       0.59642000       0.36718000
   141  C          0.92818000       0.90358000       0.86718000
   142  C          0.42818000       0.40358000       0.86718000
   143  C          0.07182000       0.90358000       0.63282000
   144  C          0.57182000       0.40358000       0.63282000
   145  C          0.04361000       0.07022000       0.24322000
   146  C          0.54361000       0.57022000       0.24322000
   147  C          0.95639000       0.07022000       0.25678000
   148  C          0.45639000       0.57022000       0.25678000
   149  C          0.95639000       0.92978000       0.75678000
   150  C          0.45639000       0.42978000       0.75678000
   151  C          0.04361000       0.92978000       0.74322000
   152  C          0.54361000       0.42978000       0.74322000
   153  C          0.10022000       0.04252000       0.34162000
   154  C          0.60022000       0.54252000       0.34162000
   155  C          0.89978000       0.04252000       0.15838000
   156  C          0.39978000       0.54252000       0.15838000
   157  C          0.89978000       0.95748000       0.65838000
   158  C          0.39978000       0.45748000       0.65838000
   159  C          0.10022000       0.95748000       0.84162000
   160  C          0.60022000       0.45748000       0.84162000
   161  C          0.18072000       0.04092000       0.33002000
   162  C          0.68072000       0.54092000       0.33002000
   163  C          0.81928000       0.04092000       0.16998000
   164  C          0.31928000       0.54092000       0.16998000
   165  C          0.81928000       0.95908000       0.66998000
   166  C          0.31928000       0.45908000       0.66998000
   167  C          0.18072000       0.95908000       0.83002000
   168  C          0.68072000       0.45908000       0.83002000
   169  H          0.35812000       0.20752000       0.08843000
   170  H          0.85812000       0.70752000       0.08843000
   171  H          0.64188000       0.20752000       0.41157000
   172  H          0.14188000       0.70752000       0.41157000
   173  H          0.64188000       0.79248000       0.91157000
   174  H          0.14188000       0.29248000       0.91157000
   175  H          0.35812000       0.79248000       0.58843000
   176  H          0.85812000       0.29248000       0.58843000
   177  H          0.41152000       0.34292000       0.17103000
   178  H          0.91152000       0.84292000       0.17103000
   179  H          0.58848000       0.34292000       0.32897000
   180  H          0.08848000       0.84292000       0.32897000
   181  H          0.58848000       0.65708000       0.82897000
   182  H          0.08848000       0.15708000       0.82897000
   183  H          0.41152000       0.65708000       0.67103000
   184  H          0.91152000       0.15708000       0.67103000
   185  H          0.41332000       0.37592000       0.38693000
   186  H          0.91332000       0.87592000       0.38693000
   187  H          0.58668000       0.37592000       0.11307000
   188  H          0.08668000       0.87592000       0.11307000
   189  H          0.58668000       0.62408000       0.61307000
   190  H          0.08668000       0.12408000       0.61307000
   191  H          0.41332000       0.62408000       0.88693000
   192  H          0.91332000       0.12408000       0.88693000
   193  H          0.36622000       0.27092000       0.52353000
   194  H          0.86622000       0.77092000       0.52353000
   195  H          0.63378000       0.27092000       0.97647000
   196  H          0.13378000       0.77092000       0.97647000
   197  H          0.63378000       0.72908000       0.47647000
   198  H          0.13378000       0.22908000       0.47647000
   199  H          0.36622000       0.72908000       0.02353000
   200  H          0.86622000       0.22908000       0.02353000
   201  H          0.31452000       0.13332000       0.44293000
   202  H          0.81452000       0.63332000       0.44293000
   203  H          0.68548000       0.13332000       0.05707000
   204  H          0.18548000       0.63332000       0.05707000
   205  H          0.68548000       0.86668000       0.55707000
   206  H          0.18548000       0.36668000       0.55707000
   207  H          0.31452000       0.86668000       0.94293000
   208  H          0.81452000       0.36668000       0.94293000
   209  H          0.25702000       0.90048000       0.18853000
   210  H          0.75702000       0.40048000       0.18853000
   211  H          0.74298000       0.90048000       0.31147000
   212  H          0.24298000       0.40048000       0.31147000
   213  H          0.74298000       0.09952000       0.81147000
   214  H          0.24298000       0.59952000       0.81147000
   215  H          0.25702000       0.09952000       0.68853000
   216  H          0.75702000       0.59952000       0.68853000
   217  H          0.32582000       0.77218000       0.26673000
   218  H          0.82582000       0.27218000       0.26673000
   219  H          0.67418000       0.77218000       0.23327000
   220  H          0.17418000       0.27218000       0.23327000
   221  H          0.67418000       0.22782000       0.73327000
   222  H          0.17418000       0.72782000       0.73327000
   223  H          0.32582000       0.22782000       0.76673000
   224  H          0.82582000       0.72782000       0.76673000
   225  H          0.45362000       0.78398000       0.38983000
   226  H          0.95362000       0.28398000       0.38983000
   227  H          0.54638000       0.78398000       0.11017000
   228  H          0.04638000       0.28398000       0.11017000
   229  H          0.54638000       0.21602000       0.61017000
   230  H          0.04638000       0.71602000       0.61017000
   231  H          0.45362000       0.21602000       0.88983000
   232  H          0.95362000       0.71602000       0.88983000
   233  H          0.51212000       0.92458000       0.42963000
   234  H          0.01212000       0.42458000       0.42963000
   235  H          0.48788000       0.92458000       0.07037000
   236  H          0.98788000       0.42458000       0.07037000
   237  H          0.48788000       0.07542000       0.57037000
   238  H          0.98788000       0.57542000       0.57037000
   239  H          0.51212000       0.07542000       0.92963000
   240  H          0.01212000       0.57542000       0.92963000
   241  H          0.44242000       0.05372000       0.35313000
   242  H          0.94242000       0.55372000       0.35313000
   243  H          0.55758000       0.05372000       0.14687000
   244  H          0.05758000       0.55372000       0.14687000
   245  H          0.55758000       0.94628000       0.64687000
   246  H          0.05758000       0.44628000       0.64687000
   247  H          0.44242000       0.94628000       0.85313000
   248  H          0.94242000       0.44628000       0.85313000
   249  H          0.17122000       0.11672000       0.04032000
   250  H          0.67122000       0.61672000       0.04032000
   251  H          0.82878000       0.11672000       0.45968000
   252  H          0.32878000       0.61672000       0.45968000
   253  H          0.82878000       0.88328000       0.95968000
   254  H          0.32878000       0.38328000       0.95968000
   255  H          0.17122000       0.88328000       0.54032000
   256  H          0.67122000       0.38328000       0.54032000
   257  H          0.03282000       0.11602000       0.06022000
   258  H          0.53282000       0.61602000       0.06022000
   259  H          0.96718000       0.11602000       0.43978000
   260  H          0.46718000       0.61602000       0.43978000
   261  H          0.96718000       0.88398000       0.93978000
   262  H          0.46718000       0.38398000       0.93978000
   263  H          0.03282000       0.88398000       0.56022000
   264  H          0.53282000       0.38398000       0.56022000
   265  H          0.08172000       0.02342000       0.42272000
   266  H          0.58172000       0.52342000       0.42272000
   267  H          0.91828000       0.02342000       0.07728000
   268  H          0.41828000       0.52342000       0.07728000
   269  H          0.91828000       0.97658000       0.57728000
   270  H          0.41828000       0.47658000       0.57728000
   271  H          0.08172000       0.97658000       0.92272000
   272  H          0.58172000       0.47658000       0.92272000
   273  H          0.21962000       0.02052000       0.40222000
   274  H          0.71962000       0.52052000       0.40222000
   275  H          0.78038000       0.02052000       0.09778000
   276  H          0.28038000       0.52052000       0.09778000
   277  H          0.78038000       0.97948000       0.59778000
   278  H          0.28038000       0.47948000       0.59778000
   279  H          0.21962000       0.97948000       0.90222000
   280  H          0.71962000       0.47948000       0.90222000
