data_KUVWON02
_symmetry_space_group_name_H-M    'P1'
_symmetry_Int_Tables_number       1
loop_
_symmetry_equiv_pos_site_id
_symmetry_equiv_pos_as_xyz
1 x,y,z
_cell_length_a                   11.53854
_cell_length_b                   16.30276
_cell_length_c                   14.66986
_cell_angle_alpha                90.0
_cell_angle_beta                 95.8842
_cell_angle_gamma                90.0
loop_
_atom_site_label
_atom_site_type_symbol
_atom_site_fract_x
_atom_site_fract_y
_atom_site_fract_z
     1  O          0.58842130       0.31051900       0.28726100
     2  O          0.41157870       0.81051900       0.21273900
     3  O          0.41157870       0.68948100       0.71273900
     4  O          0.58842130       0.18948100       0.78726100
     5  H          0.62760000       0.33470000       0.25020000
     6  H          0.37240000       0.83470000       0.24980000
     7  H          0.37240000       0.66530000       0.74980000
     8  H          0.62760000       0.16530000       0.75020000
     9  O          0.95911880       0.11267800       0.77839100
    10  O          0.04088120       0.61267800       0.72160900
    11  O          0.04088120       0.88732200       0.22160900
    12  O          0.95911880       0.38732200       0.27839100
    13  H          0.90960000       0.09300000       0.81040000
    14  H          0.09040000       0.59300000       0.68960000
    15  H          0.09040000       0.90700000       0.18960000
    16  H          0.90960000       0.40700000       0.31040000
    17  C          0.67512170       0.39005130       0.41561140
    18  C          0.32487830       0.89005130       0.08438860
    19  C          0.32487830       0.60994870       0.58438860
    20  C          0.67512170       0.10994870       0.91561140
    21  C          0.70287180       0.46989130       0.44262150
    22  C          0.29712820       0.96989130       0.05737850
    23  C          0.29712820       0.53010870       0.55737850
    24  C          0.70287180       0.03010870       0.94262150
    25  H          0.65000000       0.51300000       0.42480000
    26  H          0.35000000       0.01300000       0.07520000
    27  H          0.35000000       0.48700000       0.57520000
    28  H          0.65000000       0.98700000       0.92480000
    29  C          0.80692190       0.48765160       0.49528170
    30  C          0.19307810       0.98765160       0.00471830
    31  C          0.19307810       0.51234840       0.50471830
    32  C          0.80692190       0.01234840      -0.00471830
    33  H          0.82510000       0.54270000       0.51250000
    34  H          0.17490000       0.04270000       0.98750000
    35  H          0.17490000       0.45730000       0.48750000
    36  H          0.82510000       0.95730000       0.01250000
    37  C          0.88372000       0.42557180       0.52254180
    38  C          0.11628000       0.92557180       0.97745820
    39  C          0.11628000       0.57442820       0.47745820
    40  C          0.88372000       0.07442820       0.02254180
    41  H          0.95460000       0.43750000       0.55890000
    42  H          0.04540000       0.93750000       0.94110000
    43  H          0.04540000       0.56250000       0.44110000
    44  H          0.95460000       0.06250000       0.05890000
    45  C          0.85672000       0.34599170       0.49662190
    46  C          0.14328000       0.84599170       0.00337810
    47  C          0.14328000       0.65400830       0.50337810
    48  C          0.85672000       0.15400830      -0.00337810
    49  H          0.90950000       0.30300000       0.51530000
    50  H          0.09050000       0.80300000       0.98470000
    51  H          0.09050000       0.69700000       0.48470000
    52  H          0.90950000       0.19700000       0.01530000
    53  C          0.75418190       0.32828150       0.44393170
    54  C          0.24581810       0.82828150       0.05606830
    55  C          0.24581810       0.67171850       0.55606830
    56  C          0.75418190       0.17171850       0.94393170
    57  H          0.73700000       0.27310000       0.42660000
    58  H          0.26300000       0.77310000       0.07340000
    59  H          0.26300000       0.72690000       0.57340000
    60  H          0.73700000       0.22690000       0.92660000
    61  C          0.50261170       0.44373120       0.31327140
    62  C          0.49738830       0.94373120       0.18672860
    63  C          0.49738830       0.55626880       0.68672860
    64  C          0.50261170       0.05626880       0.81327140
    65  C          0.40259170       0.47759120       0.34222150
    66  C          0.59740830       0.97759120       0.15777850
    67  C          0.59740830       0.52240880       0.65777850
    68  C          0.40259170       0.02240880       0.84222150
    69  H          0.36510000       0.45090000       0.38870000
    70  H          0.63490000       0.95090000       0.11130000
    71  H          0.63490000       0.54910000       0.61130000
    72  H          0.36510000       0.04910000       0.88870000
    73  C          0.35606190       0.55026140       0.30421160
    74  C          0.64393810       0.05026140       0.19578840
    75  C          0.64393810       0.44973860       0.69578840
    76  C          0.35606190       0.94973860       0.80421160
    77  H          0.28750000       0.57280000       0.32490000
    78  H          0.71250000       0.07280000       0.17510000
    79  H          0.71250000       0.42720000       0.67510000
    80  H          0.28750000       0.92720000       0.82490000
    81  C          0.40942000       0.58955140       0.23658170
    82  C          0.59058000       0.08955140       0.26341830
    83  C          0.59058000       0.41044860       0.76341830
    84  C          0.40942000       0.91044860       0.73658170
    85  H          0.37840000       0.63950000       0.21110000
    86  H          0.62160000       0.13950000       0.28890000
    87  H          0.62160000       0.36050000       0.78890000
    88  H          0.37840000       0.86050000       0.71110000
    89  C          0.50842000       0.55577140       0.20618170
    90  C          0.49158000       0.05577140       0.29381830
    91  C          0.49158000       0.44422860       0.79381830
    92  C          0.50842000       0.94422860       0.70618170
    93  H          0.54510000       0.58230000       0.15910000
    94  H          0.45490000       0.08230000       0.34090000
    95  H          0.45490000       0.41770000       0.84090000
    96  H          0.54510000       0.91770000       0.65910000
    97  C          0.55397190       0.48378130       0.24383150
    98  C          0.44602810       0.98378130       0.25616850
    99  C          0.44602810       0.51621870       0.75616850
   100  C          0.55397190       0.01621870       0.74383150
   101  H          0.62170000       0.46110000       0.22200000
   102  H          0.37830000       0.96110000       0.27800000
   103  H          0.37830000       0.53890000       0.77800000
   104  H          0.62170000       0.03890000       0.72200000
   105  C          0.56134170       0.36726120       0.35775140
   106  C          0.43865830       0.86726120       0.14224860
   107  C          0.43865830       0.63273880       0.64224860
   108  C          0.56134170       0.13273880       0.85775140
   109  C          0.47882160       0.31921120       0.41325140
   110  C          0.52117840       0.81921120       0.08674860
   111  C          0.52117840       0.68078880       0.58674860
   112  C          0.47882160       0.18078880       0.91325140
   113  C          0.40389170       0.26152120       0.36902140
   114  C          0.59610830       0.76152120       0.13097860
   115  C          0.59610830       0.73847880       0.63097860
   116  C          0.40389170       0.23847880       0.86902140
   117  H          0.40750000       0.25070000       0.30580000
   118  H          0.59250000       0.75070000       0.19420000
   119  H          0.59250000       0.74930000       0.69420000
   120  H          0.40750000       0.24930000       0.80580000
   121  C          0.32457170       0.21998120       0.41586140
   122  C          0.67542830       0.71998120       0.08413860
   123  C          0.67542830       0.78001880       0.58413860
   124  C          0.32457170       0.28001880       0.91586140
   125  H          0.27410000       0.18120000       0.38400000
   126  H          0.72590000       0.68120000       0.11600000
   127  H          0.72590000       0.81880000       0.61600000
   128  H          0.27410000       0.31880000       0.88400000
   129  C          0.31648160       0.23339120       0.50857140
   130  C          0.68351840       0.73339120      -0.00857140
   131  C          0.68351840       0.76660880       0.49142860
   132  C          0.31648160       0.26660880       0.00857140
   133  C          0.39251160       0.29028120       0.55325140
   134  C          0.60748840       0.79028120       0.94674860
   135  C          0.60748840       0.70971880       0.44674860
   136  C          0.39251160       0.20971880       0.05325140
   137  H          0.38980000       0.30030000       0.61680000
   138  H          0.61020000       0.80030000       0.88320000
   139  H          0.61020000       0.69970000       0.38320000
   140  H          0.38980000       0.19970000       0.11680000
   141  C          0.47241160       0.33271120       0.50593140
   142  C          0.52758840       0.83271120      -0.00593140
   143  C          0.52758840       0.66728880       0.49406860
   144  C          0.47241160       0.16728880       0.00593140
   145  H          0.52320000       0.37140000       0.53760000
   146  H          0.47680000       0.87140000       0.96240000
   147  H          0.47680000       0.62860000       0.46240000
   148  H          0.52320000       0.12860000       0.03760000
   149  C          0.22719160       0.18900120       0.55619140
   150  C          0.77280840       0.68900120       0.94380860
   151  C          0.77280840       0.81099880       0.44380860
   152  C          0.22719160       0.31099880       0.05619140
   153  C          0.24818170       0.15925120       0.64529140
   154  C          0.75181830       0.65925120       0.85470860
   155  C          0.75181830       0.84074880       0.35470860
   156  C          0.24818170       0.34074880       0.14529140
   157  H          0.32340000       0.16550000       0.67750000
   158  H          0.67660000       0.66550000       0.82250000
   159  H          0.67660000       0.83450000       0.32250000
   160  H          0.32340000       0.33450000       0.17750000
   161  C          0.16095170       0.12064120       0.68790140
   162  C          0.83904830       0.62064120       0.81209860
   163  C          0.83904830       0.87935880       0.31209860
   164  C          0.16095170       0.37935880       0.18790140
   165  H          0.17720000       0.10150000       0.74910000
   166  H          0.82280000       0.60150000       0.75090000
   167  H          0.82280000       0.89850000       0.25090000
   168  H          0.17720000       0.39850000       0.24910000
   169  C          0.04994160       0.10942110       0.64239140
   170  C          0.95005840       0.60942110       0.85760860
   171  C          0.95005840       0.89057890       0.35760860
   172  C          0.04994160       0.39057890       0.14239140
   173  C          0.03044170       0.13716120       0.55280140
   174  C          0.96955830       0.63716120       0.94719860
   175  C          0.96955830       0.86283880       0.44719860
   176  C          0.03044170       0.36283880       0.05280140
   177  H          0.95630000       0.12890000       0.51960000
   178  H          0.04370000       0.62890000       0.98040000
   179  H          0.04370000       0.87110000       0.48040000
   180  H          0.95630000       0.37110000       0.01960000
   181  C          0.11697170       0.17670120       0.51076140
   182  C          0.88302830       0.67670120       0.98923860
   183  C          0.88302830       0.82329880       0.48923860
   184  C          0.11697170       0.32329880       0.01076140
   185  H          0.10060000       0.19580000       0.44960000
   186  H          0.89940000       0.69580000       0.05040000
   187  H          0.89940000       0.80420000       0.55040000
   188  H          0.10060000       0.30420000       0.94960000
   189  C          0.95309830       0.06968120       0.69143140
   190  C          0.04690170       0.56968120       0.80856860
   191  C          0.04690170       0.93031880       0.30856860
   192  C          0.95309830       0.43031880       0.19143140
   193  C          0.83475840       0.08448120       0.63721140
   194  C          0.16524160       0.58448120       0.86278860
   195  C          0.16524160       0.91551880       0.36278860
   196  C          0.83475840       0.41551880       0.13721140
   197  C          0.78519820       0.02798130       0.57397150
   198  C          0.21480180       0.52798130       0.92602850
   199  C          0.21480180       0.97201870       0.42602850
   200  C          0.78519820       0.47201870       0.07397150
   201  H          0.82260000       0.97670000       0.56730000
   202  H          0.17740000       0.47670000       0.93270000
   203  H          0.17740000       0.02330000       0.43270000
   204  H          0.82260000       0.52330000       0.06730000
   205  C          0.68170810       0.04521150       0.52016160
   206  C          0.31829190       0.54521150       0.97983840
   207  C          0.31829190       0.95478850       0.47983840
   208  C          0.68170810       0.45478850       0.02016160
   209  H          0.64890000       0.00590000       0.47720000
   210  H          0.35110000       0.50590000       0.02280000
   211  H          0.35110000      -0.00590000       0.52280000
   212  H          0.64890000       0.49410000       0.97720000
   213  C          0.62667810       0.11969150       0.52921160
   214  C          0.37332190       0.61969150       0.97078840
   215  C          0.37332190       0.88030850       0.47078840
   216  C          0.62667810       0.38030850       0.02921160
   217  H          0.55560000       0.13160000       0.49310000
   218  H          0.44440000       0.63160000       0.00690000
   219  H          0.44440000       0.86840000       0.50690000
   220  H          0.55560000       0.36840000      -0.00690000
   221  C          0.67602810       0.17663140       0.59124160
   222  C          0.32397190       0.67663140       0.90875840
   223  C          0.32397190       0.82336860       0.40875840
   224  C          0.67602810       0.32336860       0.09124160
   225  H          0.63900000       0.22810000       0.59720000
   226  H          0.36100000       0.72810000       0.90280000
   227  H          0.36100000       0.77190000       0.40280000
   228  H          0.63900000       0.27190000       0.09720000
   229  C          0.77873830       0.15943130       0.64461150
   230  C          0.22126170       0.65943130       0.85538850
   231  C          0.22126170       0.84056870       0.35538850
   232  C          0.77873830       0.34056870       0.14461150
   233  H          0.81160000       0.19930000       0.68690000
   234  H          0.18840000       0.69930000       0.81310000
   235  H          0.18840000       0.80070000       0.31310000
   236  H          0.81160000       0.30070000       0.18690000
   237  C          0.97158830       0.97827880       0.71117140
   238  C          0.02841170       0.47827880       0.78882860
   239  C          0.02841170       0.02172120       0.28882860
   240  C          0.97158830       0.52172120       0.21117140
   241  C          0.06198180       0.93305880       0.68115150
   242  C          0.93801820       0.43305880       0.81884850
   243  C          0.93801820       0.06694120       0.31884850
   244  C          0.06198180       0.56694120       0.18115150
   245  H          0.11770000       0.95900000       0.64750000
   246  H          0.88230000       0.45900000       0.85250000
   247  H          0.88230000       0.04100000       0.35250000
   248  H          0.11770000       0.54100000       0.14750000
   249  C          0.07112000       0.84950870       0.70039160
   250  C          0.92888000       0.34950870       0.79960840
   251  C          0.92888000       0.15049130       0.29960840
   252  C          0.07112000       0.65049130       0.20039160
   253  H          0.13300000       0.81870000       0.67960000
   254  H          0.86700000       0.31870000       0.82040000
   255  H          0.86700000       0.18130000       0.32040000
   256  H          0.13300000       0.68130000       0.17960000
   257  C         -0.00892000       0.81141850       0.74918170
   258  C          0.00892000       0.31141850       0.75081830
   259  C          0.00892000       0.18858150       0.25081830
   260  C         -0.00892000       0.68858150       0.24918170
   261  H         -0.00220000       0.75440000       0.76190000
   262  H          0.00220000       0.25440000       0.73810000
   263  H          0.00220000       0.24560000       0.23810000
   264  H         -0.00220000       0.74560000       0.26190000
   265  C          0.90148000       0.85564860       0.77961170
   266  C          0.09852000       0.35564860       0.72038830
   267  C          0.09852000       0.14435140       0.22038830
   268  C          0.90148000       0.64435140       0.27961170
   269  H          0.84630000       0.82940000       0.81360000
   270  H          0.15370000       0.32940000       0.68640000
   271  H          0.15370000       0.17060000       0.18640000
   272  H          0.84630000       0.67060000       0.31360000
   273  C          0.89172820       0.93818870       0.76077150
   274  C          0.10827180       0.43818870       0.73922850
   275  C          0.10827180       0.06181130       0.23922850
   276  C          0.89172820       0.56181130       0.26077150
   277  H          0.82940000       0.96840000       0.78200000
   278  H          0.17060000       0.46840000       0.71800000
   279  H          0.17060000       0.03160000       0.21800000
   280  H          0.82940000       0.53160000       0.28200000
