data_LANLET01
_symmetry_space_group_name_H-M    'P1'
_symmetry_Int_Tables_number       1
loop_
_symmetry_equiv_pos_site_id
_symmetry_equiv_pos_as_xyz
1 x,y,z
_cell_length_a                   7.57638
_cell_length_b                   8.59619
_cell_length_c                   10.72111
_cell_angle_alpha                100.7213
_cell_angle_beta                 99.9643
_cell_angle_gamma                91.3294
loop_
_atom_site_label
_atom_site_type_symbol
_atom_site_fract_x
_atom_site_fract_y
_atom_site_fract_z
     1  C          0.24190130       0.54677130       0.65784100
     2  C          0.75809870       0.45322870       0.34215900
     3  C          0.25439140       0.64958130       0.57311110
     4  C          0.74560860       0.35041870       0.42688890
     5  H          0.25743100       0.76109400       0.60240900
     6  H          0.74256900       0.23890600       0.39759100
     7  C          0.26235140       0.58682130       0.44501110
     8  C          0.73764860       0.41317870       0.55498890
     9  H          0.27336000       0.65565900       0.38662200
    10  H          0.72664000       0.34434100       0.61337800
    11  C          0.25425130       0.42416130       0.40258100
    12  C          0.74574870       0.57583870       0.59741900
    13  C          0.24066130       0.31926130       0.48651100
    14  C          0.75933870       0.68073870       0.51348900
    15  C          0.23647140       0.38278130       0.61491100
    16  C          0.76352860       0.61721870       0.38508900
    17  H          0.22985700       0.31403500       0.67402800
    18  H          0.77014300       0.68596500       0.32597200
    19  C          0.23914160       0.14069140       0.44794110
    20  C          0.76085840       0.85930860       0.55205890
    21  C          0.14329140       0.53558130       0.86761100
    22  C          0.85670860       0.46441870       0.13238900
    23  C          0.30798140       0.75690130       0.00115100
    24  C          0.69201860       0.24309870      -0.00115100
    25  C          0.33611140       0.74607120       0.86232100
    26  C          0.66388860       0.25392880       0.13767900
    27  C          0.48798150       0.74934140       0.09002120
    28  C          0.51201850       0.25065860       0.90997880
    29  H          0.46712100       0.74483000       0.17700400
    30  H          0.53287900       0.25517000       0.82299600
    31  H          0.56466600       0.84395100       0.09334700
    32  H          0.43533400       0.15604900       0.90665300
    33  H          0.54724100       0.65439400       0.05651600
    34  H          0.45275900       0.34560600       0.94348400
    35  C          0.21328160       0.90746140       0.04391120
    36  C          0.78671840       0.09253860       0.95608880
    37  H          0.10447200       0.91219000       0.98057300
    38  H          0.89552800       0.08781000       0.01942700
    39  H          0.29384900       0.00055800       0.05024800
    40  H          0.70615100      -0.00055800       0.94975200
    41  H          0.18079200       0.90617700       0.12832200
    42  H          0.81920800       0.09382300       0.87167800
    43  F          0.35668100       0.09438900       0.37054700
    44  F          0.64331900       0.90561100       0.62945300
    45  F          0.07740110       0.07492900       0.38753800
    46  F          0.92259890       0.92507100       0.61246200
    47  F          0.28403120       0.07429900       0.55227700
    48  F          0.71596880       0.92570100       0.44772300
    49  O          0.34960120       0.44487110       0.21301800
    50  O          0.65039880       0.55512890       0.78698200
    51  O          0.15117120       0.25542110       0.20720800
    52  O          0.84882880       0.74457890       0.79279200
    53  O          0.03540100       0.42141900       0.82576800
    54  O          0.96459900       0.57858100       0.17423200
    55  O          0.42359120       0.83789100       0.82200800
    56  O          0.57640880       0.16210900       0.17799200
    57  N          0.25298130       0.36944120       0.26399900
    58  N          0.74701870       0.63055880       0.73600100
    59  N          0.24122120       0.60772110       0.78963900
    60  N          0.75877880       0.39227890       0.21036100
    61  N          0.19009120       0.61620110      -0.01120100
    62  N          0.80990880       0.38379890       0.01120100
    63  H          0.13220000       0.60120000       0.05171700
    64  H          0.86780000       0.39880000       0.94828300
