data_LANLET04
_symmetry_space_group_name_H-M    'P1'
_symmetry_Int_Tables_number       1
loop_
_symmetry_equiv_pos_site_id
_symmetry_equiv_pos_as_xyz
1 x,y,z
_cell_length_a                   7.19665
_cell_length_b                   16.203812
_cell_length_c                   22.620915
_cell_angle_alpha                90.0
_cell_angle_beta                 94.6332
_cell_angle_gamma                90.0
loop_
_atom_site_label
_atom_site_type_symbol
_atom_site_fract_x
_atom_site_fract_y
_atom_site_fract_z
     1  C          0.77593000       0.77773140       0.63054100
     2  C          0.72407000       0.27773140       0.86945900
     3  C          0.22407000       0.22226860       0.36945900
     4  C          0.27593000       0.72226860       0.13054100
     5  C          0.80543000       0.82075150       0.57920100
     6  C          0.69457000       0.32075150       0.92079900
     7  C          0.19457000       0.17924850       0.42079900
     8  C          0.30543000       0.67924850       0.07920100
     9  H          0.81009500       0.87934000       0.57958700
    10  H          0.68990500       0.37934000       0.92041300
    11  H          0.18990500       0.12066000       0.42041300
    12  H          0.31009500       0.62066000       0.07958700
    13  C          0.82793000       0.77791150       0.52738100
    14  C          0.67207000       0.27791150       0.97261900
    15  C          0.17207000       0.22208850       0.47261900
    16  C          0.32793000       0.72208850       0.02738100
    17  H          0.85182000       0.80695000       0.49230700
    18  H          0.64818000       0.30695000       0.00769300
    19  H          0.14818000       0.19305000       0.50769300
    20  H          0.35182000       0.69305000       0.99230700
    21  C          0.81573000       0.69297140       0.52670100
    22  C          0.68427000       0.19297140       0.97329900
    23  C          0.18427000       0.30702860       0.47329900
    24  C          0.31573000       0.80702860       0.02670100
    25  C          0.78793000       0.64840140       0.57774100
    26  C          0.71207000       0.14840140       0.92225900
    27  C          0.21207000       0.35159860       0.42225900
    28  C          0.28793000       0.85159860       0.07774100
    29  C          0.76933000       0.69164140       0.62985100
    30  C          0.73067000       0.19164140       0.87014900
    31  C          0.23067000       0.30835860       0.37014900
    32  C          0.26933000       0.80835860       0.12985100
    33  H          0.75191600       0.66240600       0.66539000
    34  H          0.74808400       0.16240600       0.83461000
    35  H          0.24808400       0.33759400       0.33461000
    36  H          0.25191600       0.83759400       0.16539000
    37  C          0.79093000       0.55579150       0.58086110
    38  C          0.70907000       0.05579150       0.91913890
    39  C          0.20907000       0.44420850       0.41913890
    40  C          0.29093000       0.94420850       0.08086110
    41  C          0.66393000       0.79119140       0.73188100
    42  C          0.83607000       0.29119140       0.76811900
    43  C          0.33607000       0.20880860       0.26811900
    44  C          0.16393000       0.70880860       0.23188100
    45  C          0.67293000       0.85718140       0.77940100
    46  C          0.82707000       0.35718140       0.72059900
    47  C          0.32707000       0.14281860       0.22059900
    48  C          0.17293000       0.64281860       0.27940100
    49  C          0.84733000       0.89616140       0.70083110
    50  C          0.65267000       0.39616140       0.79916890
    51  C          0.15267000       0.10383860       0.29916890
    52  C          0.34733000       0.60383860       0.20083110
    53  C          0.76783000       0.82442140       0.83690100
    54  C          0.73217000       0.32442140       0.66309900
    55  C          0.23217000       0.17557860       0.16309900
    56  C          0.26783000       0.67557860       0.33690100
    57  H          0.69562800       0.77816300       0.85101300
    58  H          0.80437200       0.27816300       0.64898700
    59  H          0.30437200       0.22183700       0.14898700
    60  H          0.19562800       0.72183700       0.35101300
    61  H          0.77549800       0.86837700       0.86675800
    62  H          0.72450200       0.36837700       0.63324200
    63  H          0.22450200       0.13162300       0.13324200
    64  H          0.27549800       0.63162300       0.36675800
    65  H          0.89371300       0.80554100       0.83012400
    66  H          0.60628700       0.30554100       0.66987600
    67  H          0.10628700       0.19445900       0.16987600
    68  H          0.39371300       0.69445900       0.33012400
    69  C          0.47373000       0.88690150       0.78601110
    70  C          0.02627000       0.38690150       0.71398890
    71  C          0.52627000       0.11309850       0.21398890
    72  C          0.97373000       0.61309850       0.28601110
    73  H          0.42149100       0.91042800       0.74835200
    74  H          0.07850900       0.41042800       0.75164800
    75  H          0.57850900       0.08957200       0.25164800
    76  H          0.92149100       0.58957200       0.24835200
    77  H          0.47515500       0.92909300       0.81708500
    78  H          0.02484500       0.42909300       0.68291500
    79  H          0.52484500       0.07090700       0.18291500
    80  H          0.97515500       0.57090700       0.31708500
    81  H          0.39680500       0.84019400       0.79683500
    82  H          0.10319500       0.34019400       0.70316500
    83  H          0.60319500       0.15980600       0.20316500
    84  H          0.89680500       0.65980600       0.29683500
    85  N          0.82803000       0.65216130       0.46904900
    86  N          0.67197000       0.15216130       0.03095100
    87  N          0.17197000       0.34783870       0.53095100
    88  N          0.32803000       0.84783870       0.96904900
    89  N          0.75312000       0.82118110       0.68404800
    90  N          0.74688000       0.32118110       0.81595200
    91  N          0.24688000       0.17881890       0.31595200
    92  N          0.25312000       0.67881890       0.18404800
    93  N          0.78813000       0.91948130       0.75299900
    94  N          0.71187000       0.41948130       0.74700100
    95  N          0.21187000       0.08051870       0.24700100
    96  N          0.28813000       0.58051870       0.25299900
    97  H          0.85630000       0.95381600       0.77341100
    98  H          0.64370000       0.45381600       0.72658900
    99  H          0.14370000       0.04618400       0.22658900
   100  H          0.35630000       0.54618400       0.27341100
   101  O          0.94342000       0.67903110       0.43677700
   102  O          0.55658000       0.17903110       0.06322300
   103  O          0.05658000       0.32096890       0.56322300
   104  O          0.44342000       0.82096890       0.93677700
   105  O          0.72032000       0.59490110       0.45598800
   106  O          0.77968000       0.09490110       0.04401200
   107  O          0.27968000       0.40509890       0.54401200
   108  O          0.22032000       0.90509890       0.95598800
   109  O          0.58652000       0.72499100       0.73487700
   110  O          0.91348000       0.22499100       0.76512300
   111  O          0.41348000       0.27500900       0.26512300
   112  O          0.08652000       0.77500900       0.23487700
   113  O          0.95952000       0.93036900       0.67136700
   114  O          0.54048000       0.43036900       0.82863300
   115  O          0.04048000       0.06963100       0.32863300
   116  O          0.45952000       0.56963100       0.17136700
   117  F          0.92422180       0.52305800       0.55001600
   118  F          0.57577820       0.02305800       0.94998400
   119  F          0.07577820       0.47694200       0.44998400
   120  F          0.42422180       0.97694200       0.05001600
   121  F          0.63047180       0.51971800       0.56158600
   122  F          0.86952820       0.01971800       0.93841400
   123  F          0.36952820       0.48028200       0.43841400
   124  F          0.13047180       0.98028200       0.06158600
   125  F          0.82834190       0.53030800       0.63728600
   126  F          0.67165810       0.03030800       0.86271400
   127  F          0.17165810       0.46969200       0.36271400
   128  F          0.32834190       0.96969200       0.13728600
   129  C          0.22933000       0.18236140       0.86320100
   130  C          0.27067000       0.68236140       0.63679900
   131  C          0.77067000       0.81763860       0.13679900
   132  C          0.72933000       0.31763860       0.36320100
   133  C          0.20903000       0.13192140       0.91200100
   134  C          0.29097000       0.63192140       0.58799900
   135  C          0.79097000       0.86807860       0.08799900
   136  C          0.70903000       0.36807860       0.41200100
   137  H          0.21379900       0.07360700       0.90809000
   138  H          0.28620100       0.57360700       0.59191000
   139  H          0.78620100       0.92639300       0.09191000
   140  H          0.71379900       0.42639300       0.40809000
   141  C          0.18173000       0.16743150       0.96651110
   142  C          0.31827000       0.66743150       0.53348890
   143  C          0.81827000       0.83256850       0.03348890
   144  C          0.68173000       0.33256850       0.46651110
   145  H          0.16252000       0.13353000      -0.00026100
   146  H          0.33748000       0.63353000       0.50026100
   147  H          0.83748000       0.86647000       0.00026100
   148  H          0.66252000       0.36647000       0.49973900
   149  C          0.18253000       0.25214150       0.97209100
   150  C          0.31747000       0.75214150       0.52790900
   151  C          0.81747000       0.74785850       0.02790900
   152  C          0.68253000       0.24785850       0.47209100
   153  C          0.20523000       0.30357140       0.92409110
   154  C          0.29477000       0.80357140       0.57590890
   155  C          0.79477000       0.69642860       0.07590890
   156  C          0.70523000       0.19642860       0.42409110
   157  C          0.22753000       0.26773140       0.86926100
   158  C          0.27247000       0.76773140       0.63073900
   159  C          0.77247000       0.73226860       0.13073900
   160  C          0.72753000       0.23226860       0.36926100
   161  H          0.24171700       0.30178600       0.83573800
   162  H          0.25828300       0.80178600       0.66426200
   163  H          0.75828300       0.69821400       0.16426200
   164  H          0.74171700       0.19821400       0.33573800
   165  C          0.19413000       0.39623150       0.92808110
   166  C          0.30587000       0.89623150       0.57191890
   167  C          0.80587000       0.60376850       0.07191890
   168  C          0.69413000       0.10376850       0.42808110
   169  C          0.33433000       0.18280140       0.76042100
   170  C          0.16567000       0.68280140       0.73957900
   171  C          0.66567000       0.81719860       0.23957900
   172  C          0.83433000       0.31719860       0.26042100
   173  C          0.31333000       0.12423130       0.70776100
   174  C          0.18667000       0.62423130       0.79223900
   175  C          0.68667000       0.87576870       0.29223900
   176  C          0.81333000       0.37576870       0.20776100
   177  C          0.14993000       0.07434140       0.78599110
   178  C          0.35007000       0.57434140       0.71400890
   179  C          0.85007000       0.92565860       0.21400890
   180  C          0.64993000       0.42565860       0.28599110
   181  C          0.50723000       0.09455150       0.69465120
   182  C         -0.00723000       0.59455150       0.80534880
   183  C          0.49277000       0.90544850       0.30534880
   184  C          0.00723000       0.40544850       0.19465120
   185  H          0.49601700       0.05461200       0.66202100
   186  H          0.00398300       0.55461200       0.83797900
   187  H          0.50398300       0.94538800       0.33797900
   188  H         -0.00398300       0.44538800       0.16202100
   189  H          0.56811400       0.06823700       0.73010800
   190  H          0.93188600       0.56823700       0.76989200
   191  H          0.43188600       0.93176300       0.26989200
   192  H          0.06811400       0.43176300       0.23010800
   193  H          0.58189100       0.14174200       0.68341400
   194  H          0.91810900       0.64174200       0.81658600
   195  H          0.41810900       0.85825800       0.31658600
   196  H          0.08189100       0.35825800       0.18341400
   197  C          0.21203000       0.16592150       0.65388100
   198  C          0.28797000       0.66592150       0.84611900
   199  C          0.78797000       0.83407850       0.34611900
   200  C          0.71203000       0.33407850       0.15388100
   201  H          0.28465400       0.21352000       0.64217500
   202  H          0.21534600       0.71352000       0.85782500
   203  H          0.71534600       0.78648000       0.35782500
   204  H          0.78465400       0.28648000       0.14217500
   205  H          0.08884300       0.18447800       0.66391600
   206  H          0.41115700       0.68447800       0.83608400
   207  H          0.91115700       0.81552200       0.33608400
   208  H          0.58884300       0.31552200       0.16391600
   209  H          0.19756100       0.12654300       0.62094700
   210  H          0.30243900       0.62654300       0.87905300
   211  H          0.80243900       0.87345700       0.37905300
   212  H          0.69756100       0.37345700       0.12094700
   213  N          0.16203000       0.28612130       0.03171900
   214  N          0.33797000       0.78612130       0.46828100
   215  N          0.83797000       0.71387870       0.96828100
   216  N          0.66203000       0.21387870       0.53171900
   217  N          0.24912000       0.14626110       0.80689800
   218  N          0.25088000       0.64626110       0.69310200
   219  N          0.75088000       0.85373890       0.19310200
   220  N          0.74912000       0.35373890       0.30689800
   221  N          0.19923000       0.05937130       0.73124100
   222  N          0.30077000       0.55937130       0.76875900
   223  N          0.80077000       0.94062870       0.26875900
   224  N          0.69923000       0.44062870       0.23124100
   225  H          0.14130000       0.02581500       0.71031100
   226  H          0.35870000       0.52581500       0.78968900
   227  H          0.85870000       0.97418500       0.28968900
   228  H          0.64130000       0.47418500       0.21031100
   229  O          0.03152000       0.25991110       0.05805700
   230  O          0.46848000       0.75991110       0.44194300
   231  O          0.96848000       0.74008890       0.94194300
   232  O          0.53152000       0.24008890       0.55805700
   233  O          0.27663000       0.33687110       0.05132800
   234  O          0.22337000       0.83687110       0.44867200
   235  O          0.72337000       0.66312890       0.94867200
   236  O          0.77663000       0.16312890       0.55132800
   237  O          0.41512000       0.24846900       0.76161700
   238  O          0.08488000       0.74846900       0.73838300
   239  O          0.58488000       0.75153100       0.23838300
   240  O          0.91512000       0.25153100       0.26161700
   241  O          0.04302000       0.03623100       0.81460700
   242  O          0.45698000       0.53623100       0.68539300
   243  O          0.95698000       0.96376900       0.18539300
   244  O          0.54302000       0.46376900       0.31460700
   245  F          0.06128180       0.42122800       0.96258600
   246  F          0.43871820       0.92122800       0.53741400
   247  F          0.93871820       0.57877200       0.03741400
   248  F          0.56128180       0.07877200       0.46258600
   249  F          0.35275190       0.43202800       0.94941600
   250  F          0.14724810       0.93202800       0.55058400
   251  F          0.64724810       0.56797200       0.05058400
   252  F          0.85275190       0.06797200       0.44941600
   253  F          0.15092000       0.42979800       0.87447600
   254  F          0.34908000       0.92979800       0.62552400
   255  F          0.84908000       0.57020200       0.12552400
   256  F          0.65092000       0.07020200       0.37447600
