data_LANLET02
_symmetry_space_group_name_H-M    'P1'
_symmetry_Int_Tables_number       1
loop_
_symmetry_equiv_pos_site_id
_symmetry_equiv_pos_as_xyz
1 x,y,z
_cell_length_a                   11.17545
_cell_length_b                   10.08684
_cell_length_c                   23.64661
_cell_angle_alpha                90.0
_cell_angle_beta                 101.827419
_cell_angle_gamma                90.0
loop_
_atom_site_label
_atom_site_type_symbol
_atom_site_fract_x
_atom_site_fract_y
_atom_site_fract_z
     1  C          0.52932900       0.34794100       0.43620400
     2  C          0.47067100       0.34794100       0.06379600
     3  C          0.02932900       0.84794100       0.43620400
     4  C          0.97067100       0.84794100       0.06379600
     5  C          0.47067100       0.65205900       0.56379600
     6  C          0.52932900       0.65205900       0.93620400
     7  C          0.97067100       0.15205900       0.56379600
     8  C          0.02932900       0.15205900       0.93620400
     9  C          0.60389900       0.45981110       0.44518400
    10  C          0.39610100       0.45981110       0.05481600
    11  C          0.10389900       0.95981110       0.44518400
    12  C          0.89610100       0.95981110       0.05481600
    13  C          0.39610100       0.54018890       0.55481600
    14  C          0.60389900       0.54018890       0.94518400
    15  C          0.89610100       0.04018890       0.55481600
    16  C          0.10389900       0.04018890       0.94518400
    17  H          0.60299300       0.52180400       0.41485100
    18  H          0.39700700       0.52180400       0.08514900
    19  H          0.10299300       0.02180400       0.41485100
    20  H          0.89700700       0.02180400       0.08514900
    21  H          0.39700700       0.47819600       0.58514900
    22  H          0.60299300       0.47819600       0.91485100
    23  H          0.89700700       0.97819600       0.58514900
    24  H          0.10299300       0.97819600       0.91485100
    25  C          0.67972900       0.47989110       0.49900400
    26  C          0.32027100       0.47989110       0.00099600
    27  C          0.17972900       0.97989110       0.49900400
    28  C          0.82027100       0.97989110       0.00099600
    29  C          0.32027100       0.52010890       0.50099600
    30  C          0.67972900       0.52010890      -0.00099600
    31  C          0.82027100       0.02010890       0.50099600
    32  C          0.17972900       0.02010890      -0.00099600
    33  H          0.73356200       0.55375100       0.50526800
    34  H          0.26643800       0.55375100      -0.00526800
    35  H          0.23356200       0.05375100       0.50526800
    36  H          0.76643800       0.05375100      -0.00526800
    37  H          0.26643800       0.44624900       0.49473200
    38  H          0.73356200       0.44624900       0.00526800
    39  H          0.76643800       0.94624900       0.49473200
    40  H          0.23356200       0.94624900       0.00526800
    41  C          0.67603900       0.39121110       0.54339400
    42  C          0.32396100       0.39121110       0.95660600
    43  C          0.17603900       0.89121110       0.54339400
    44  C          0.82396100       0.89121110       0.95660600
    45  C          0.32396100       0.60878890       0.45660600
    46  C          0.67603900       0.60878890       0.04339400
    47  C          0.82396100       0.10878890       0.45660600
    48  C          0.17603900       0.10878890       0.04339400
    49  C          0.60135900       0.27965100       0.53528400
    50  C          0.39864100       0.27965100       0.96471600
    51  C          0.10135900       0.77965100       0.53528400
    52  C          0.89864100       0.77965100       0.96471600
    53  C          0.39864100       0.72034900       0.46471600
    54  C          0.60135900       0.72034900       0.03528400
    55  C          0.89864100       0.22034900       0.46471600
    56  C          0.10135900       0.22034900       0.03528400
    57  C          0.52958900       0.25691100       0.48092400
    58  C          0.47041100       0.25691100       0.01907600
    59  C          0.02958900       0.75691100       0.48092400
    60  C          0.97041100       0.75691100       0.01907600
    61  C          0.47041100       0.74308900       0.51907600
    62  C          0.52958900       0.74308900       0.98092400
    63  C          0.97041100       0.24308900       0.51907600
    64  C          0.02958900       0.24308900       0.98092400
    65  H          0.48050300       0.17936900       0.47403500
    66  H          0.51949700       0.17936900       0.02596500
    67  H          0.98050300       0.67936900       0.47403500
    68  H          0.01949700       0.67936900       0.02596500
    69  H          0.51949700       0.82063100       0.52596500
    70  H          0.48050300       0.82063100       0.97403500
    71  H          0.01949700       0.32063100       0.52596500
    72  H          0.98050300       0.32063100       0.97403500
    73  C          0.59458100       0.18042110       0.58211400
    74  C          0.40541900       0.18042110       0.91788600
    75  C          0.09458100       0.68042110       0.58211400
    76  C          0.90541900       0.68042110       0.91788600
    77  C          0.40541900       0.81957890       0.41788600
    78  C          0.59458100       0.81957890       0.08211400
    79  C          0.90541900       0.31957890       0.41788600
    80  C          0.09458100       0.31957890       0.08211400
    81  C          0.47635900       0.36444110       0.32780400
    82  C          0.52364100       0.36444110       0.17219600
    83  C          0.97635900       0.86444110       0.32780400
    84  C          0.02364100       0.86444110       0.17219600
    85  C          0.52364100       0.63555890       0.67219600
    86  C          0.47635900       0.63555890       0.82780400
    87  C          0.02364100       0.13555890       0.67219600
    88  C          0.97635900       0.13555890       0.82780400
    89  C          0.29597900       0.23940110       0.30824400
    90  C          0.70402100       0.23940110       0.19175600
    91  C          0.79597900       0.73940110       0.30824400
    92  C          0.20402100       0.73940110       0.19175600
    93  C          0.70402100       0.76059890       0.69175600
    94  C          0.29597900       0.76059890       0.80824400
    95  C          0.20402100       0.26059890       0.69175600
    96  C          0.79597900       0.26059890       0.80824400
    97  C          0.33946900       0.25678110       0.37340400
    98  C          0.66053100       0.25678110       0.12659600
    99  C          0.83946900       0.75678110       0.37340400
   100  C          0.16053100       0.75678110       0.12659600
   101  C          0.66053100       0.74321890       0.62659600
   102  C          0.33946900       0.74321890       0.87340400
   103  C          0.16053100       0.24321890       0.62659600
   104  C          0.83946900       0.24321890       0.87340400
   105  C          0.31479110       0.09415120       0.29334500
   106  C          0.68520890       0.09415120       0.20665500
   107  C          0.81479110       0.59415120       0.29334500
   108  C          0.18520890       0.59415120       0.20665500
   109  C          0.68520890       0.90584880       0.70665500
   110  C          0.31479110       0.90584880       0.79334500
   111  C          0.18520890       0.40584880       0.70665500
   112  C          0.81479110       0.40584880       0.79334500
   113  H          0.29285000       0.08218700       0.25135400
   114  H          0.70715000       0.08218700       0.24864600
   115  H          0.79285000       0.58218700       0.25135400
   116  H          0.20715000       0.58218700       0.24864600
   117  H          0.70715000       0.91781300       0.74864600
   118  H          0.29285000       0.91781300       0.75135400
   119  H          0.20715000       0.41781300       0.74864600
   120  H          0.79285000       0.41781300       0.75135400
   121  H          0.26287000       0.03746300       0.31188400
   122  H          0.73713000       0.03746300       0.18811600
   123  H          0.76287000       0.53746300       0.31188400
   124  H          0.23713000       0.53746300       0.18811600
   125  H          0.73713000       0.96253700       0.68811600
   126  H          0.26287000       0.96253700       0.81188400
   127  H          0.23713000       0.46253700       0.68811600
   128  H          0.76287000       0.46253700       0.81188400
   129  H          0.40070200       0.06986700       0.30722900
   130  H          0.59929800       0.06986700       0.19277100
   131  H          0.90070200       0.56986700       0.30722900
   132  H          0.09929800       0.56986700       0.19277100
   133  H          0.59929800       0.93013300       0.69277100
   134  H          0.40070200       0.93013300       0.80722900
   135  H          0.09929800       0.43013300       0.69277100
   136  H          0.90070200       0.43013300       0.80722900
   137  C          0.16334100       0.28162130       0.28783500
   138  C          0.83665900       0.28162130       0.21216500
   139  C          0.66334100       0.78162130       0.28783500
   140  C          0.33665900       0.78162130       0.21216500
   141  C          0.83665900       0.71837870       0.71216500
   142  C          0.16334100       0.71837870       0.78783500
   143  C          0.33665900       0.21837870       0.71216500
   144  C          0.66334100       0.21837870       0.78783500
   145  H          0.15303000       0.37270400       0.30044400
   146  H          0.84697000       0.37270400       0.19955600
   147  H          0.65303000       0.87270400       0.30044400
   148  H          0.34697000       0.87270400       0.19955600
   149  H          0.84697000       0.62729600       0.69955600
   150  H          0.15303000       0.62729600       0.80044400
   151  H          0.34697000       0.12729600       0.69955600
   152  H          0.65303000       0.12729600       0.80044400
   153  H          0.11013200       0.22219700       0.30433300
   154  H          0.88986800       0.22219700       0.19566700
   155  H          0.61013200       0.72219700       0.30433300
   156  H          0.38986800       0.72219700       0.19566700
   157  H          0.88986800       0.77780300       0.69566700
   158  H          0.11013200       0.77780300       0.80433300
   159  H          0.38986800       0.27780300       0.69566700
   160  H          0.61013200       0.27780300       0.80433300
   161  H          0.14149500       0.27715300       0.24556300
   162  H          0.85850500       0.27715300       0.25443700
   163  H          0.64149500       0.77715300       0.24556300
   164  H          0.35850500       0.77715300       0.25443700
   165  H          0.85850500       0.72284700       0.75443700
   166  H          0.14149500       0.72284700       0.74556300
   167  H          0.35850500       0.22284700       0.75443700
   168  H          0.64149500       0.22284700       0.74556300
   169  F          0.70206600       0.16399800       0.61861300
   170  F          0.29793400       0.16399800       0.88138700
   171  F          0.20206600       0.66399800       0.61861300
   172  F          0.79793400       0.66399800       0.88138700
   173  F          0.29793400       0.83600200       0.38138700
   174  F          0.70206600       0.83600200       0.11861300
   175  F          0.79793400       0.33600200       0.38138700
   176  F          0.20206600       0.33600200       0.11861300
   177  F          0.56119700       0.06079700       0.55963300
   178  F          0.43880300       0.06079700       0.94036700
   179  F          0.06119700       0.56079700       0.55963300
   180  F          0.93880300       0.56079700       0.94036700
   181  F          0.43880300       0.93920300       0.44036700
   182  F          0.56119700       0.93920300       0.05963300
   183  F          0.93880300       0.43920300       0.44036700
   184  F          0.06119700       0.43920300       0.05963300
   185  F          0.51299700       0.21513800       0.61350300
   186  F          0.48700300       0.21513800       0.88649700
   187  F          0.01299700       0.71513800       0.61350300
   188  F         -0.01299700       0.71513800       0.88649700
   189  F          0.48700300       0.78486200       0.38649700
   190  F          0.51299700       0.78486200       0.11350300
   191  F         -0.01299700       0.28486200       0.38649700
   192  F          0.01299700       0.28486200       0.11350300
   193  O          0.86017800       0.44402100       0.60344400
   194  O          0.13982200       0.44402100       0.89655600
   195  O          0.36017800       0.94402100       0.60344400
   196  O          0.63982200       0.94402100       0.89655600
   197  O          0.13982200       0.55597900       0.39655600
   198  O          0.86017800       0.55597900       0.10344400
   199  O          0.63982200       0.05597900       0.39655600
   200  O          0.36017800       0.05597900       0.10344400
   201  O          0.69977800       0.42740100       0.64136300
   202  O          0.30022200       0.42740100       0.85863700
   203  O          0.19977800       0.92740100       0.64136300
   204  O          0.80022200       0.92740100       0.85863700
   205  O          0.30022200       0.57259900       0.35863700
   206  O          0.69977800       0.57259900       0.14136300
   207  O          0.80022200       0.07259900       0.35863700
   208  O          0.19977800       0.07259900       0.14136300
   209  O          0.56814700       0.42348900       0.32205300
   210  O          0.43185300       0.42348900       0.17794700
   211  O          0.06814700       0.92348900       0.32205300
   212  O          0.93185300       0.92348900       0.17794700
   213  O          0.43185300       0.57651100       0.67794700
   214  O          0.56814700       0.57651100       0.82205300
   215  O          0.93185300       0.07651100       0.67794700
   216  O          0.06814700       0.07651100       0.82205300
   217  O          0.28831700       0.21917900       0.41069300
   218  O          0.71168300       0.21917900       0.08930700
   219  O          0.78831700       0.71917900       0.41069300
   220  O          0.21168300       0.71917900       0.08930700
   221  O          0.71168300       0.78082100       0.58930700
   222  O          0.28831700       0.78082100       0.91069300
   223  O          0.21168300       0.28082100       0.58930700
   224  O          0.78831700       0.28082100       0.91069300
   225  N          0.75163900       0.42229100       0.60045400
   226  N          0.24836100       0.42229100       0.89954600
   227  N          0.25163900       0.92229100       0.60045400
   228  N          0.74836100       0.92229100       0.89954600
   229  N          0.24836100       0.57770900       0.39954600
   230  N          0.75163900       0.57770900       0.10045400
   231  N          0.74836100       0.07770900       0.39954600
   232  N          0.25163900       0.07770900       0.10045400
   233  N          0.45191800       0.32233900       0.38189400
   234  N          0.54808200       0.32233900       0.11810600
   235  N          0.95191800       0.82233900       0.38189400
   236  N          0.04808200       0.82233900       0.11810600
   237  N          0.54808200       0.67766100       0.61810600
   238  N          0.45191800       0.67766100       0.88189400
   239  N          0.04808200       0.17766100       0.61810600
   240  N          0.95191800       0.17766100       0.88189400
   241  N          0.38187800       0.32497100       0.28682400
   242  N          0.61812200       0.32497100       0.21317600
   243  N          0.88187800       0.82497100       0.28682400
   244  N          0.11812200       0.82497100       0.21317600
   245  N          0.61812200       0.67502900       0.71317600
   246  N          0.38187800       0.67502900       0.78682400
   247  N          0.11812200       0.17502900       0.71317600
   248  N          0.88187800       0.17502900       0.78682400
   249  H          0.37801500       0.34421700       0.25027000
   250  H          0.62198500       0.34421700       0.24973000
   251  H          0.87801500       0.84421700       0.25027000
   252  H          0.12198500       0.84421700       0.24973000
   253  H          0.62198500       0.65578300       0.74973000
   254  H          0.37801500       0.65578300       0.75027000
   255  H          0.12198500       0.15578300       0.74973000
   256  H          0.87801500       0.15578300       0.75027000
