data_LANLET
_symmetry_space_group_name_H-M    'P1'
_symmetry_Int_Tables_number       1
loop_
_symmetry_equiv_pos_site_id
_symmetry_equiv_pos_as_xyz
1 x,y,z
_cell_length_a                   12.33049
_cell_length_b                   9.88752
_cell_length_c                   12.21183
_cell_angle_alpha                90.0
_cell_angle_beta                 117.3228
_cell_angle_gamma                90.0
loop_
_atom_site_label
_atom_site_type_symbol
_atom_site_fract_x
_atom_site_fract_y
_atom_site_fract_z
     1  F          0.23075800       0.18106100       0.90252900
     2  F          0.76924200       0.68106100       0.59747100
     3  F          0.76924200       0.81893900       0.09747100
     4  F          0.23075800       0.31893900       0.40252900
     5  F          0.15392800       0.06052100      -0.00417900
     6  F          0.84607200       0.56052100       0.50417900
     7  F          0.84607200       0.93947900       0.00417900
     8  F          0.15392800       0.43947900       0.49582100
     9  F          0.26813800       0.22939110       0.08854900
    10  F          0.73186200       0.72939110       0.41145100
    11  F          0.73186200       0.77060890       0.91145100
    12  F          0.26813800       0.27060890       0.58854900
    13  O          0.60398100       0.28832120       0.72787900
    14  O          0.39601900       0.78832120       0.77212100
    15  O          0.39601900       0.71167880       0.27212100
    16  O          0.60398100       0.21167880       0.22787900
    17  O          0.87886100       0.25489110       0.13651900
    18  O          0.12113900       0.75489110       0.36348100
    19  O          0.12113900       0.74510890       0.86348100
    20  O          0.87886100       0.24510890       0.63651900
    21  O          0.14267120       0.47236140       0.74335120
    22  O          0.85732880       0.97236140       0.75664880
    23  O          0.85732880       0.52763860       0.25664880
    24  O          0.14267120       0.02763860       0.24335120
    25  O          0.26114100       0.46290120       0.94084120
    26  O          0.73885900       0.96290120       0.55915880
    27  O          0.73885900       0.53709880       0.05915880
    28  O          0.26114100       0.03709880       0.44084120
    29  N          0.16293120       0.44744130       0.84896130
    30  N          0.83706880       0.94744130       0.65103870
    31  N          0.83706880       0.55255870       0.15103870
    32  N          0.16293120       0.05255870       0.34896130
    33  N          0.76660900       0.27413130       0.92377110
    34  N          0.23339100       0.77413130       0.57622890
    35  N          0.23339100       0.72586870       0.07622890
    36  N          0.76660900       0.22586870       0.42377110
    37  N          0.67246890       0.20473130       0.03076120
    38  N          0.32753110       0.70473130       0.46923880
    39  N          0.32753110       0.79526870       0.96923880
    40  N          0.67246890       0.29526870       0.53076120
    41  C          0.86604880       0.31698150       0.90267130
    42  C          0.13395120       0.81698150       0.59732870
    43  C          0.13395120       0.68301850       0.09732870
    44  C          0.86604880       0.18301850       0.40267130
    45  C          0.96968870       0.23688150       0.94671130
    46  C          0.03031130       0.73688150       0.55328870
    47  C          0.03031130       0.76311850       0.05328870
    48  C          0.96968870       0.26311850       0.44671130
    49  C          0.06962130       0.27696150       0.93109130
    50  C          0.93037870       0.77696150       0.56890870
    51  C          0.93037870       0.72303850       0.06890870
    52  C          0.06962130       0.22303850       0.43109130
    53  C          0.06014130       0.39789150       0.86842130
    54  C          0.93985870       0.89789150       0.63157870
    55  C          0.93985870       0.60210850       0.13157870
    56  C          0.06014130       0.10210850       0.36842130
    57  C          0.95732870       0.47766160       0.82365130
    58  C          0.04267130       0.97766160       0.67634870
    59  C          0.04267130       0.52233840       0.17634870
    60  C          0.95732870       0.02233840       0.32365130
    61  C          0.85896870       0.43759150       0.84249130
    62  C          0.14103130       0.93759150       0.65750870
    63  C          0.14103130       0.56240850       0.15750870
    64  C          0.85896870       0.06240850       0.34249130
    65  C          0.64610870       0.26571150       0.83743130
    66  C          0.35389130       0.76571150       0.66256870
    67  C          0.35389130       0.73428850       0.16256870
    68  C          0.64610870       0.23428850       0.33743130
    69  C          0.57452870       0.22238150       0.90554130
    70  C          0.42547130       0.72238150       0.59445870
    71  C          0.42547130       0.77761850       0.09445870
    72  C          0.57452870       0.27761850       0.40554130
    73  C          0.78231870       0.24400140       0.04444130
    74  C          0.21768130       0.74400140       0.45555870
    75  C          0.21768130       0.75599860       0.95555870
    76  C          0.78231870       0.25599860       0.54444130
    77  C          0.18088130       0.18783160       0.98009150
    78  C          0.81911870       0.68783160       0.51990850
    79  C          0.81911870       0.81216840       0.01990850
    80  C          0.18088130       0.31216840       0.48009150
    81  C          0.48661870       0.33459170       0.89947150
    82  C          0.51338130       0.83459170       0.60052850
    83  C          0.51338130       0.66540830       0.10052850
    84  C          0.48661870       0.16540830       0.39947150
    85  C          0.50718850       0.08983170       0.85113150
    86  C          0.49281150       0.58983170       0.64886850
    87  C          0.49281150       0.91016830       0.14886850
    88  C          0.50718850       0.41016830       0.35113150
    89  H          0.97240000       0.15430000      -0.01230000
    90  H          0.02760000       0.65430000       0.51230000
    91  H          0.02760000       0.84570000       0.01230000
    92  H          0.97240000       0.34570000       0.48770000
    93  H          0.95350000       0.55890000       0.78050000
    94  H          0.04650000       0.05890000       0.71950000
    95  H          0.04650000       0.44110000       0.21950000
    96  H          0.95350000       0.94110000       0.28050000
    97  H          0.78790000       0.49240000       0.81440000
    98  H          0.21210000      -0.00760000       0.68560000
    99  H          0.21210000       0.50760000       0.18560000
   100  H          0.78790000       0.00760000       0.31440000
   101  H          0.65928500       0.20401800       0.09251700
   102  H          0.34071500       0.70401800       0.40748300
   103  H          0.34071500       0.79598200       0.90748300
   104  H          0.65928500       0.29598200       0.59251700
   105  H          0.44820000       0.31030000       0.95140000
   106  H          0.55180000       0.81030000       0.54860000
   107  H          0.55180000       0.68970000       0.04860000
   108  H          0.44820000       0.18970000       0.45140000
   109  H          0.42350000       0.34590000       0.81410000
   110  H          0.57650000       0.84590000       0.68590000
   111  H          0.57650000       0.65410000       0.18590000
   112  H          0.42350000       0.15410000       0.31410000
   113  H          0.53180000       0.41950000       0.92900000
   114  H          0.46820000       0.91950000       0.57100000
   115  H          0.46820000       0.58050000       0.07100000
   116  H          0.53180000       0.08050000       0.42900000
   117  H          0.56660000       0.01880000       0.86150000
   118  H          0.43340000       0.51880000       0.63850000
   119  H          0.43340000       0.98120000       0.13850000
   120  H          0.56660000       0.48120000       0.36150000
   121  H          0.45210000       0.10230000       0.76320000
   122  H          0.54790000       0.60230000       0.73680000
   123  H          0.54790000       0.89770000       0.23680000
   124  H          0.45210000       0.39770000       0.26320000
   125  H          0.45980000       0.06350000       0.89380000
   126  H          0.54020000       0.56350000       0.60620000
   127  H          0.54020000       0.93650000       0.10620000
   128  H          0.45980000       0.43650000       0.39380000
