data_LAWYOY02
_symmetry_space_group_name_H-M    'P1'
_symmetry_Int_Tables_number       1
loop_
_symmetry_equiv_pos_site_id
_symmetry_equiv_pos_as_xyz
1 x,y,z
_cell_length_a                   16.7483
_cell_length_b                   7.2251
_cell_length_c                   23.8185
_cell_angle_alpha                90.0
_cell_angle_beta                 97.783
_cell_angle_gamma                90.0
loop_
_atom_site_label
_atom_site_type_symbol
_atom_site_fract_x
_atom_site_fract_y
_atom_site_fract_z
     1  O          0.65443700       0.95073830       0.51687500
     2  O          0.15443700       0.45073830       0.51687500
     3  O          0.34556300       0.95073830       0.98312500
     4  O          0.84556300       0.45073830       0.98312500
     5  O          0.34556300       0.04926170       0.48312500
     6  O          0.84556300       0.54926170       0.48312500
     7  O          0.65443700       0.04926170       0.01687500
     8  O          0.15443700       0.54926170       0.01687500
     9  N          0.38312600       0.16799170       0.37353500
    10  N          0.88312600       0.66799170       0.37353500
    11  N          0.61687400       0.16799170       0.12646500
    12  N          0.11687400       0.66799170       0.12646500
    13  N          0.61687400       0.83200830       0.62646500
    14  N          0.11687400       0.33200830       0.62646500
    15  N          0.38312600       0.83200830       0.87353500
    16  N          0.88312600       0.33200830       0.87353500
    17  C          0.33439800       0.24309190       0.32895500
    18  C          0.83439800       0.74309190       0.32895500
    19  C          0.66560200       0.24309190       0.17104500
    20  C          0.16560200       0.74309190       0.17104500
    21  C          0.66560200       0.75690810       0.67104500
    22  C          0.16560200       0.25690810       0.67104500
    23  C          0.33439800       0.75690810       0.82895500
    24  C          0.83439800       0.25690810       0.82895500
    25  C          0.38331900       0.31603000       0.29248600
    26  C          0.88331900       0.81603000       0.29248600
    27  C          0.61668100       0.31603000       0.20751400
    28  C          0.11668100       0.81603000       0.20751400
    29  C          0.61668100       0.68397000       0.70751400
    30  C          0.11668100       0.18397000       0.70751400
    31  C          0.38331900       0.68397000       0.79248600
    32  C          0.88331900       0.18397000       0.79248600
    33  C          0.46288900       0.28483000       0.31595600
    34  C          0.96288900       0.78483000       0.31595600
    35  C          0.53711100       0.28483000       0.18404400
    36  C          0.03711100       0.78483000       0.18404400
    37  C          0.53711100       0.71517000       0.68404400
    38  C          0.03711100       0.21517000       0.68404400
    39  C          0.46288900       0.71517000       0.81595600
    40  C          0.96288900       0.21517000       0.81595600
    41  C          0.46260800       0.19372000       0.36617600
    42  C          0.96260800       0.69372000       0.36617600
    43  C          0.53739200       0.19372000       0.13382400
    44  C          0.03739200       0.69372000       0.13382400
    45  C          0.53739200       0.80628000       0.63382400
    46  C          0.03739200       0.30628000       0.63382400
    47  C          0.46260800       0.80628000       0.86617600
    48  C          0.96260800       0.30628000       0.86617600
    49  C          0.52797800       0.13272000       0.40535600
    50  C          0.02797800       0.63272000       0.40535600
    51  C          0.47202200       0.13272000       0.09464400
    52  C          0.97202200       0.63272000       0.09464400
    53  C          0.47202200       0.86728000       0.59464400
    54  C          0.97202200       0.36728000       0.59464400
    55  C          0.52797800       0.86728000       0.90535600
    56  C          0.02797800       0.36728000       0.90535600
    57  C          0.58669800       0.08482000       0.43606600
    58  C          0.08669800       0.58482000       0.43606600
    59  C          0.41330200       0.08482000       0.06393400
    60  C          0.91330200       0.58482000       0.06393400
    61  C          0.41330200       0.91518000       0.56393400
    62  C          0.91330200       0.41518000       0.56393400
    63  C          0.58669800       0.91518000       0.93606600
    64  C          0.08669800       0.41518000       0.93606600
    65  C          0.65819800       0.02542000       0.47157600
    66  C          0.15819800       0.52542000       0.47157600
    67  C          0.34180200       0.02542000       0.02842400
    68  C          0.84180200       0.52542000       0.02842400
    69  C          0.34180200       0.97458000       0.52842400
    70  C          0.84180200       0.47458000       0.52842400
    71  C          0.65819800       0.97458000       0.97157600
    72  C          0.15819800       0.47458000       0.97157600
    73  C          0.73679800       0.06021190       0.45089500
    74  C          0.23679800       0.56021190       0.45089500
    75  C          0.26320200       0.06021190       0.04910500
    76  C          0.76320200       0.56021190       0.04910500
    77  C          0.26320200       0.93978810       0.54910500
    78  C          0.76320200       0.43978810       0.54910500
    79  C          0.73679800       0.93978810       0.95089500
    80  C          0.23679800       0.43978810       0.95089500
    81  C          0.74196100       0.15212000       0.40106700
    82  C          0.24196100       0.65212000       0.40106700
    83  C          0.25803900       0.15212000       0.09893300
    84  C          0.75803900       0.65212000       0.09893300
    85  C          0.25803900       0.84788000       0.59893300
    86  C          0.75803900       0.34788000       0.59893300
    87  C          0.74196100       0.84788000       0.90106700
    88  C          0.24196100       0.34788000       0.90106700
    89  C          0.81685120       0.18523000       0.38422900
    90  C          0.31685120       0.68523000       0.38422900
    91  C          0.18314880       0.18523000       0.11577100
    92  C          0.68314880       0.68523000       0.11577100
    93  C          0.18314880       0.81477000       0.61577100
    94  C          0.68314880       0.31477000       0.61577100
    95  C          0.81685120       0.81477000       0.88422900
    96  C          0.31685120       0.31477000       0.88422900
    97  C          0.88539110       0.12623000       0.41738110
    98  C          0.38539110       0.62623000       0.41738110
    99  C          0.11460890       0.12623000       0.08261890
   100  C          0.61460890       0.62623000       0.08261890
   101  C          0.11460890       0.87377000       0.58261890
   102  C          0.61460890       0.37377000       0.58261890
   103  C          0.88539110       0.87377000       0.91738110
   104  C          0.38539110       0.37377000       0.91738110
   105  C          0.88037110       0.03343000       0.46591110
   106  C          0.38037110       0.53343000       0.46591110
   107  C          0.11962890       0.03343000       0.03408890
   108  C          0.61962890       0.53343000       0.03408890
   109  C          0.11962890       0.96657000       0.53408890
   110  C          0.61962890       0.46657000       0.53408890
   111  C          0.88037110       0.96657000       0.96591110
   112  C          0.38037110       0.46657000       0.96591110
   113  C          0.80629900      -0.00153000       0.48349700
   114  C          0.30629900       0.49847000       0.48349700
   115  C          0.19370100      -0.00153000       0.01650300
   116  C          0.69370100       0.49847000       0.01650300
   117  C          0.19370100       0.00153000       0.51650300
   118  C          0.69370100       0.50153000       0.51650300
   119  C          0.80629900       0.00153000       0.98349700
   120  C          0.30629900       0.50153000       0.98349700
   121  C          0.24630800       0.24025180       0.32451500
   122  C          0.74630800       0.74025180       0.32451500
   123  C          0.75369200       0.24025180       0.17548500
   124  C          0.25369200       0.74025180       0.17548500
   125  C          0.75369200       0.75974820       0.67548500
   126  C          0.25369200       0.25974820       0.67548500
   127  C          0.24630800       0.75974820       0.82451500
   128  C          0.74630800       0.25974820       0.82451500
   129  C          0.20694800       0.13292000       0.36030600
   130  C          0.70694800       0.63292000       0.36030600
   131  C          0.79305200       0.13292000       0.13969400
   132  C          0.29305200       0.63292000       0.13969400
   133  C          0.79305200       0.86708000       0.63969400
   134  C          0.29305200       0.36708000       0.63969400
   135  C          0.20694800       0.86708000       0.86030600
   136  C          0.70694800       0.36708000       0.86030600
   137  C          0.12357900       0.13343000       0.35586700
   138  C          0.62357900       0.63343000       0.35586700
   139  C          0.87642100       0.13343000       0.14413300
   140  C          0.37642100       0.63343000       0.14413300
   141  C          0.87642100       0.86657000       0.64413300
   142  C          0.37642100       0.36657000       0.64413300
   143  C          0.12357900       0.86657000       0.85586700
   144  C          0.62357900       0.36657000       0.85586700
   145  C          0.07897100       0.24013000       0.31578700
   146  C          0.57897100       0.74013000       0.31578700
   147  C          0.92102900       0.24013000       0.18421300
   148  C          0.42102900       0.74013000       0.18421300
   149  C          0.92102900       0.75987000       0.68421300
   150  C          0.42102900       0.25987000       0.68421300
   151  C          0.07897100       0.75987000       0.81578700
   152  C          0.57897100       0.25987000       0.81578700
   153  C          0.11673100       0.34713000       0.28018800
   154  C          0.61673100       0.84713000       0.28018800
   155  C          0.88326900       0.34713000       0.21981200
   156  C          0.38326900       0.84713000       0.21981200
   157  C          0.88326900       0.65287000       0.71981200
   158  C          0.38326900       0.15287000       0.71981200
   159  C          0.11673100       0.65287000       0.78018800
   160  C          0.61673100       0.15287000       0.78018800
   161  C          0.20019900       0.34752000       0.28423700
   162  C          0.70019900       0.84752000       0.28423700
   163  C          0.79980100       0.34752000       0.21576300
   164  C          0.29980100       0.84752000       0.21576300
   165  C          0.79980100       0.65248000       0.71576300
   166  C          0.29980100       0.15248000       0.71576300
   167  C          0.20019900       0.65248000       0.78423700
   168  C          0.70019900       0.15248000       0.78423700
   169  H          0.36799000       0.12220000       0.40656000
   170  H          0.86799000       0.62220000       0.40656000
   171  H          0.63201000       0.12220000       0.09344000
   172  H          0.13201000       0.62220000       0.09344000
   173  H          0.63201000       0.87780000       0.59344000
   174  H          0.13201000       0.37780000       0.59344000
   175  H          0.36799000       0.87780000       0.90656000
   176  H          0.86799000       0.37780000       0.90656000
   177  H          0.36581000       0.37930000       0.25787000
   178  H          0.86581000       0.87930000       0.25787000
   179  H          0.63419000       0.37930000       0.24213000
   180  H          0.13419000       0.87930000       0.24213000
   181  H          0.63419000       0.62070000       0.74213000
   182  H          0.13419000       0.12070000       0.74213000
   183  H          0.36581000       0.62070000       0.75787000
   184  H          0.86581000       0.12070000       0.75787000
   185  H          0.51071200       0.32030000       0.30107000
   186  H          0.01071200       0.82030000       0.30107000
   187  H          0.48928800       0.32030000       0.19893000
   188  H          0.98928800       0.82030000       0.19893000
   189  H          0.48928800       0.67970000       0.69893000
   190  H          0.98928800       0.17970000       0.69893000
   191  H          0.51071200       0.67970000       0.80107000
   192  H          0.01071200       0.17970000       0.80107000
   193  H          0.69211000       0.19520000       0.37697000
   194  H          0.19211000       0.69520000       0.37697000
   195  H          0.30789000       0.19520000       0.12303000
   196  H          0.80789000       0.69520000       0.12303000
   197  H          0.30789000       0.80480000       0.62303000
   198  H          0.80789000       0.30480000       0.62303000
   199  H          0.69211000       0.80480000       0.87697000
   200  H          0.19211000       0.30480000       0.87697000
   201  H          0.81861200       0.25530000       0.34998000
   202  H          0.31861200       0.75530000       0.34998000
   203  H          0.18138800       0.25530000       0.15002000
   204  H          0.68138800       0.75530000       0.15002000
   205  H          0.18138800       0.74470000       0.65002000
   206  H          0.68138800       0.24470000       0.65002000
   207  H          0.81861200       0.74470000       0.84998000
   208  H          0.31861200       0.24470000       0.84998000
   209  H          0.93741500       0.15430000       0.40599000
   210  H          0.43741500       0.65430000       0.40599000
   211  H          0.06258500       0.15430000       0.09401000
   212  H          0.56258500       0.65430000       0.09401000
   213  H          0.06258500       0.84570000       0.59401000
   214  H          0.56258500       0.34570000       0.59401000
   215  H          0.93741500       0.84570000       0.90599000
   216  H          0.43741500       0.34570000       0.90599000
   217  H          0.92571400      -0.00930000       0.49079000
   218  H          0.42571400       0.49070000       0.49079000
   219  H          0.07428600      -0.00930000       0.00921000
   220  H          0.57428600       0.49070000       0.00921000
   221  H          0.07428600       0.00930000       0.50921000
   222  H          0.57428600       0.50930000       0.50921000
   223  H          0.92571400       0.00930000       0.99079000
   224  H          0.42571400       0.50930000       0.99079000
   225  H          0.79881000       0.92980000       0.51867000
   226  H          0.29881000       0.42980000       0.51867000
   227  H          0.20119000       0.92980000       0.98133000
   228  H          0.70119000       0.42980000       0.98133000
   229  H          0.20119000       0.07020000       0.48133000
   230  H          0.70119000       0.57020000       0.48133000
   231  H          0.79881000       0.07020000       0.01867000
   232  H          0.29881000       0.57020000       0.01867000
   233  H          0.23669000       0.05820000       0.38926000
   234  H          0.73669000       0.55820000       0.38926000
   235  H          0.76331000       0.05820000       0.11074000
   236  H          0.26331000       0.55820000       0.11074000
   237  H          0.76331000       0.94180000       0.61074000
   238  H          0.26331000       0.44180000       0.61074000
   239  H          0.23669000       0.94180000       0.88926000
   240  H          0.73669000       0.44180000       0.88926000
   241  H          0.09761000       0.05830000       0.38497000
   242  H          0.59761000       0.55830000       0.38497000
   243  H          0.90239000       0.05830000       0.11503000
   244  H          0.40239000       0.55830000       0.11503000
   245  H          0.90239000       0.94170000       0.61503000
   246  H          0.40239000       0.44170000       0.61503000
   247  H          0.09761000       0.94170000       0.88497000
   248  H          0.59761000       0.44170000       0.88497000
   249  H          0.02141200       0.24330000       0.31397000
   250  H          0.52141200       0.74330000       0.31397000
   251  H          0.97858800       0.24330000       0.18603000
   252  H          0.47858800       0.74330000       0.18603000
   253  H          0.97858800       0.75670000       0.68603000
   254  H          0.47858800       0.25670000       0.68603000
   255  H          0.02141200       0.75670000       0.81397000
   256  H          0.52141200       0.25670000       0.81397000
   257  H          0.08561200       0.41930000       0.25178000
   258  H          0.58561200       0.91930000       0.25178000
   259  H          0.91438800       0.41930000       0.24822000
   260  H          0.41438800       0.91930000       0.24822000
   261  H          0.91438800       0.58070000       0.74822000
   262  H          0.41438800       0.08070000       0.74822000
   263  H          0.08561200       0.58070000       0.75178000
   264  H          0.58561200       0.08070000       0.75178000
   265  H          0.22671000       0.42930000       0.25957000
   266  H          0.72671000       0.92930000       0.25957000
   267  H          0.77329000       0.42930000       0.24043000
   268  H          0.27329000       0.92930000       0.24043000
   269  H          0.77329000       0.57070000       0.74043000
   270  H          0.27329000       0.07070000       0.74043000
   271  H          0.22671000       0.57070000       0.75957000
   272  H          0.72671000       0.07070000       0.75957000
