data_LAWYOY01
_symmetry_space_group_name_H-M    'P1'
_symmetry_Int_Tables_number       1
loop_
_symmetry_equiv_pos_site_id
_symmetry_equiv_pos_as_xyz
1 x,y,z
_cell_length_a                   10.6844
_cell_length_b                   23.33611
_cell_length_c                   5.528816
_cell_angle_alpha                90.0
_cell_angle_beta                 90.0
_cell_angle_gamma                90.0
loop_
_atom_site_label
_atom_site_type_symbol
_atom_site_fract_x
_atom_site_fract_y
_atom_site_fract_z
     1  O          0.76280140       0.67829700       0.41293000
     2  O          0.23719860       0.32170300       0.91293000
     3  O          0.26280140       0.82170300       0.41293000
     4  O          0.73719860       0.17829700       0.91293000
     5  N          0.45606180       0.87368800       0.10374000
     6  N          0.54393820       0.12631200       0.60374000
     7  N          0.95606180       0.62631200       0.10374000
     8  N          0.04393820       0.37368800       0.60374000
     9  H          0.39920000       0.85640000       0.22130000
    10  H          0.60080000       0.14360000       0.72130000
    11  H          0.89920000       0.64360000       0.22130000
    12  H          0.10080000       0.35640000       0.72130000
    13  C          0.56192000       0.84325100       0.04134000
    14  C          0.43808000       0.15674900       0.54134000
    15  C          0.06192000       0.65674900       0.04134000
    16  C          0.93808000       0.34325100       0.54134000
    17  C          0.60982000       0.86793100       0.83155000
    18  C          0.39018000       0.13206900       0.33155000
    19  C          0.10982000       0.63206900       0.83155000
    20  C          0.89018000       0.36793100       0.33155000
    21  H          0.68220000       0.85580000       0.74590000
    22  H          0.31780000       0.14420000       0.24590000
    23  H          0.18220000       0.64420000       0.74590000
    24  H          0.81780000       0.35580000       0.24590000
    25  C          0.53162000       0.91389100       0.77035000
    26  C          0.46838000       0.08610900       0.27035000
    27  C          0.03162000       0.58610900       0.77035000
    28  C          0.96838000       0.41389100       0.27035000
    29  H          0.54170000       0.93870000       0.63570000
    30  H          0.45830000       0.06130000       0.13570000
    31  H          0.04170000       0.56130000       0.63570000
    32  H          0.95830000       0.43870000       0.13570000
    33  C          0.43672000       0.91669900       0.94126000
    34  C          0.56328000       0.08330100       0.44126000
    35  C          0.93672000       0.58330100       0.94126000
    36  C          0.06328000       0.41669900       0.44126000
    37  C          0.60482000       0.79689100       0.17945000
    38  C          0.39518000       0.20310900       0.67945000
    39  C          0.10482000       0.70310900       0.17945000
    40  C          0.89518000       0.29689100       0.67945000
    41  C          0.64112000       0.75708100       0.29775000
    42  C          0.35888000       0.24291900       0.79775000
    43  C          0.14112000       0.74291900       0.29775000
    44  C          0.85888000       0.25708100       0.79775000
    45  C          0.66942000       0.70803900       0.44645000
    46  C          0.33058000       0.29196100       0.94645000
    47  C          0.16942000       0.79196100       0.44645000
    48  C          0.83058000       0.20803900       0.94645000
    49  C          0.57912000       0.69555900       0.64475000
    50  C          0.42088000       0.30444100       0.14475000
    51  C          0.07912000       0.80444100       0.64475000
    52  C          0.92088000       0.19555900       0.14475000
    53  C          0.47362000       0.72951900       0.68005000
    54  C          0.52638000       0.27048100       0.18005000
    55  C          0.97362000       0.77048100       0.68005000
    56  C          0.02638000       0.22951900       0.18005000
    57  H          0.45630000       0.76030000       0.57280000
    58  H          0.54370000       0.23970000       0.07280000
    59  H          0.95630000       0.73970000       0.57280000
    60  H          0.04370000       0.26030000       0.07280000
    61  C          0.39392000       0.71829100       0.87174000
    62  C          0.60608000       0.28170900       0.37174000
    63  C          0.89392000       0.78170900       0.87174000
    64  C          0.10608000       0.21829100       0.37174000
    65  H          0.32260000       0.74190000       0.89720000
    66  H          0.67740000       0.25810000       0.39720000
    67  H          0.82260000       0.75810000       0.89720000
    68  H          0.17740000       0.24190000       0.39720000
    69  C          0.41762000       0.67299100       0.02615000
    70  C          0.58238000       0.32700900       0.52615000
    71  C          0.91762000       0.82700900       0.02615000
    72  C          0.08238000       0.17299100       0.52615000
    73  H          0.36310000       0.66580000       0.15850000
    74  H          0.63690000       0.33420000       0.65850000
    75  H          0.86310000       0.83420000       0.15850000
    76  H          0.13690000       0.16580000       0.65850000
    77  C          0.52072000       0.63790100      -0.01165000
    78  C          0.47928000       0.36209900       0.48835000
    79  C          0.02072000       0.86209900      -0.01165000
    80  C          0.97928000       0.13790100       0.48835000
    81  H          0.53590000       0.60630000       0.09250000
    82  H          0.46410000       0.39370000       0.59250000
    83  H          0.03590000       0.89370000       0.09250000
    84  H          0.96410000       0.10630000       0.59250000
    85  C          0.60162000       0.64928900       0.79735000
    86  C          0.39838000       0.35071100       0.29735000
    87  C          0.10162000       0.85071100       0.79735000
    88  C          0.89838000       0.14928900       0.29735000
    89  H          0.67240000       0.62540000       0.77100000
    90  H          0.32760000       0.37460000       0.27100000
    91  H          0.17240000       0.87460000       0.77100000
    92  H          0.82760000       0.12540000       0.27100000
    93  C          0.33542000       0.95865900       0.96616000
    94  C          0.66458000       0.04134100       0.46616000
    95  C          0.83542000       0.54134100       0.96616000
    96  C          0.16458000       0.45865900       0.46616000
    97  C          0.25722000       0.96034100       0.16785000
    98  C          0.74278000       0.03965900       0.66785000
    99  C          0.75722000       0.53965900       0.16785000
   100  C          0.24278000       0.46034100       0.66785000
   101  H          0.26720000       0.93270000       0.29250000
   102  H          0.73280000       0.06730000       0.79250000
   103  H          0.76720000       0.56730000       0.29250000
   104  H          0.23280000       0.43270000       0.79250000
   105  C          0.16522000       0.00173100       0.18885000
   106  C          0.83478000      -0.00173100       0.68885000
   107  C          0.66522000       0.49826900       0.18885000
   108  C          0.33478000       0.50173100       0.68885000
   109  H          0.11190000       0.00190000       0.32650000
   110  H          0.88810000      -0.00190000       0.82650000
   111  H          0.61190000       0.49810000       0.32650000
   112  H          0.38810000       0.50190000       0.82650000
   113  C          0.14992000       0.04298110       0.01025000
   114  C          0.85008000       0.95701890       0.51025000
   115  C          0.64992000       0.45701890       0.01025000
   116  C          0.35008000       0.54298110       0.51025000
   117  H          0.08790000       0.07190000       0.02600000
   118  H          0.91210000       0.92810000       0.52600000
   119  H          0.58790000       0.42810000       0.02600000
   120  H          0.41210000       0.57190000       0.52600000
   121  C          0.22692000       0.04121100       0.80835000
   122  C          0.77308000       0.95878900       0.30835000
   123  C          0.72692000       0.45878900       0.80835000
   124  C          0.27308000       0.54121100       0.30835000
   125  H          0.21630000       0.06880000       0.68370000
   126  H          0.78370000       0.93120000       0.18370000
   127  H          0.71630000       0.43120000       0.68370000
   128  H          0.28370000       0.56880000       0.18370000
   129  C          0.31862000       0.00009100       0.78615000
   130  C          0.68138000      -0.00009100       0.28615000
   131  C          0.81862000       0.49990900       0.78615000
   132  C          0.18138000       0.50009100       0.28615000
   133  H          0.37090000      -0.00020000       0.64730000
   134  H          0.62910000       0.00020000       0.14730000
   135  H          0.87090000       0.50020000       0.64730000
   136  H          0.12910000       0.49980000       0.14730000
