data_LAWYOY
_symmetry_space_group_name_H-M    'P1'
_symmetry_Int_Tables_number       1
loop_
_symmetry_equiv_pos_site_id
_symmetry_equiv_pos_as_xyz
1 x,y,z
_cell_length_a                   9.3673
_cell_length_b                   15.7045
_cell_length_c                   10.5922
_cell_angle_alpha                90.0
_cell_angle_beta                 116.153
_cell_angle_gamma                90.0
loop_
_atom_site_label
_atom_site_type_symbol
_atom_site_fract_x
_atom_site_fract_y
_atom_site_fract_z
     1  O          0.69036120       0.00840600       0.37785110
     2  O          0.30963880       0.50840600       0.12214890
     3  O          0.30963880      -0.00840600       0.62214890
     4  O          0.69036120       0.49159400       0.87785110
     5  N          0.55068140       0.10140700       0.81912120
     6  N          0.44931860       0.60140700       0.68087880
     7  N          0.44931860       0.89859300       0.18087880
     8  N          0.55068140       0.39859300       0.31912120
     9  H          0.47721800       0.06409000       0.76211600
    10  H          0.52278200       0.56409000       0.73788400
    11  H          0.52278200       0.93591000       0.23788400
    12  H          0.47721800       0.43591000       0.26211600
    13  C          0.67672170       0.12739900       0.79549150
    14  C          0.32327830       0.62739900       0.70450850
    15  C          0.32327830       0.87260100       0.20450850
    16  C          0.67672170       0.37260100       0.29549150
    17  C          0.76621180       0.18272900       0.90219160
    18  C          0.23378820       0.68272900       0.59780840
    19  C          0.23378820       0.81727100       0.09780840
    20  C          0.76621180       0.31727100       0.40219160
    21  H          0.85860000       0.21040000       0.91270000
    22  H          0.14140000       0.71040000       0.58730000
    23  H          0.14140000       0.78960000       0.08730000
    24  H          0.85860000       0.28960000       0.41270000
    25  C          0.69332180       0.18965900      -0.00875840
    26  C          0.30667820       0.68965900       0.50875840
    27  C          0.30667820       0.81034100       0.00875840
    28  C          0.69332180       0.31034100       0.49124160
    29  H          0.72810000       0.22320000       0.07160000
    30  H          0.27190000       0.72320000       0.42840000
    31  H          0.27190000       0.77680000       0.92840000
    32  H          0.72810000       0.27680000       0.57160000
    33  C          0.56016170       0.13797800       0.93955150
    34  C          0.43983830       0.63797800       0.56044850
    35  C          0.43983830       0.86202200       0.06044850
    36  C          0.56016170       0.36202200       0.43955150
    37  C          0.70289170       0.09813900       0.68147160
    38  C          0.29710830       0.59813900       0.81852840
    39  C          0.29710830       0.90186100       0.31852840
    40  C          0.70289170       0.40186100       0.18147160
    41  C          0.73357170       0.07518900       0.58789160
    42  C          0.26642830       0.57518900       0.91210840
    43  C          0.26642830       0.92481100       0.41210840
    44  C          0.73357170       0.42481100       0.08789160
    45  C          0.77058170       0.05751900       0.47309150
    46  C          0.22941830       0.55751900       0.02690850
    47  C          0.22941830       0.94248100       0.52690850
    48  C          0.77058170       0.44248100       0.97309150
    49  C          0.90815160       0.10394800       0.47183150
    50  C          0.09184840       0.60394800       0.02816850
    51  C          0.09184840       0.89605200       0.52816850
    52  C          0.90815160       0.39605200       0.97183150
    53  C          0.02013160       0.14328800       0.59205160
    54  C         -0.02013160       0.64328800       0.90794840
    55  C         -0.02013160       0.85671200       0.40794840
    56  C          0.02013160       0.35671200       0.09205160
    57  H          0.01050000       0.14040000       0.67560000
    58  H         -0.01050000       0.64040000       0.82440000
    59  H         -0.01050000       0.85960000       0.32440000
    60  H          0.01050000       0.35960000       0.17560000
    61  C          0.14576180       0.18660900       0.58733170
    62  C          0.85423820       0.68660900       0.91266830
    63  C          0.85423820       0.81339100       0.41266830
    64  C          0.14576180       0.31339100       0.08733170
    65  H          0.22240000       0.21160000       0.66860000
    66  H          0.77760000       0.71160000       0.83140000
    67  H          0.77760000       0.78840000       0.33140000
    68  H          0.22240000       0.28840000       0.16860000
    69  C          0.15838190       0.19304100       0.46293190
    70  C          0.84161810       0.69304100       0.03706810
    71  C          0.84161810       0.80695900       0.53706810
    72  C          0.15838190       0.30695900       0.96293190
    73  H          0.24240000       0.22310000       0.46000000
    74  H          0.75760000       0.72310000       0.04000000
    75  H          0.75760000       0.77690000       0.54000000
    76  H          0.24240000       0.27690000       0.96000000
    77  C          0.04632000       0.15487900       0.34244190
    78  C          0.95368000       0.65487900       0.15755810
    79  C          0.95368000       0.84512100       0.65755810
    80  C          0.04632000       0.34512100       0.84244190
    81  H          0.05420000       0.15990000       0.25820000
    82  H          0.94580000       0.65990000       0.24180000
    83  H          0.94580000       0.84010000       0.74180000
    84  H          0.05420000       0.34010000       0.75820000
    85  C          0.92251180       0.10924900       0.34713170
    86  C          0.07748820       0.60924900       0.15286830
    87  C          0.07748820       0.89075100       0.65286830
    88  C          0.92251180       0.39075100       0.84713170
    89  H          0.84880000       0.08210000       0.26670000
    90  H          0.15120000       0.58210000       0.23330000
    91  H          0.15120000       0.91790000       0.73330000
    92  H          0.84880000       0.41790000       0.76670000
    93  C          0.44680170       0.11975900      -0.00350850
    94  C          0.55319830       0.61975900       0.50350850
    95  C          0.55319830       0.88024100       0.00350850
    96  C          0.44680170       0.38024100       0.49649150
    97  C          0.30830180       0.07433900       0.91986160
    98  C          0.69169820       0.57433900       0.58013840
    99  C          0.69169820       0.92566100       0.08013840
   100  C          0.30830180       0.42566100       0.41986160
   101  H          0.28540000       0.05590000       0.82950000
   102  H          0.71460000       0.55590000       0.67050000
   103  H          0.71460000       0.94410000       0.17050000
   104  H          0.28540000       0.44410000       0.32950000
   105  C          0.20382000       0.05613100       0.97644180
   106  C          0.79618000       0.55613100       0.52355820
   107  C          0.79618000       0.94386900       0.02355820
   108  C          0.20382000       0.44386900       0.47644180
   109  H          0.11030000       0.02660000       0.92310000
   110  H          0.88970000       0.52660000       0.57690000
   111  H          0.88970000       0.97340000       0.07690000
   112  H          0.11030000       0.47340000       0.42310000
   113  C          0.23702000       0.08145100       0.11102190
   114  C          0.76298000       0.58145100       0.38897810
   115  C          0.76298000       0.91854900       0.88897810
   116  C          0.23702000       0.41854900       0.61102190
   117  H          0.16720000       0.06830000       0.14910000
   118  H          0.83280000       0.56830000       0.35090000
   119  H          0.83280000       0.93170000       0.85090000
   120  H          0.16720000       0.43170000       0.64910000
   121  C          0.37442000       0.12632100       0.18895170
   122  C          0.62558000       0.62632100       0.31104830
   123  C          0.62558000       0.87367900       0.81104830
   124  C          0.37442000       0.37367900       0.68895170
   125  H          0.39750000       0.14340000       0.28000000
   126  H          0.60250000       0.64340000       0.22000000
   127  H          0.60250000       0.85660000       0.72000000
   128  H          0.39750000       0.35660000       0.78000000
   129  C          0.47810190       0.14605100       0.13242160
   130  C          0.52189810       0.64605100       0.36757840
   131  C          0.52189810       0.85394900       0.86757840
   132  C          0.47810190       0.35394900       0.63242160
   133  H          0.56970000       0.17720000       0.18530000
   134  H          0.43030000       0.67720000       0.31470000
   135  H          0.43030000       0.82280000       0.81470000
   136  H          0.56970000       0.32280000       0.68530000
