data_LEBTAQ02
_symmetry_space_group_name_H-M    'P1'
_symmetry_Int_Tables_number       1
loop_
_symmetry_equiv_pos_site_id
_symmetry_equiv_pos_as_xyz
1 x,y,z
_cell_length_a                   13.2473
_cell_length_b                   8.816519
_cell_length_c                   10.3893
_cell_angle_alpha                90.0
_cell_angle_beta                 104.5829
_cell_angle_gamma                90.0
loop_
_atom_site_label
_atom_site_type_symbol
_atom_site_fract_x
_atom_site_fract_y
_atom_site_fract_z
     1  C          0.34974900       0.35031140       0.93691880
     2  C          0.65025100       0.85031140       0.56308120
     3  C          0.65025100       0.64968860       0.06308120
     4  C          0.34974900       0.14968860       0.43691880
     5  C          0.27969100       0.30401150       0.82006870
     6  C          0.72030900       0.80401150       0.67993130
     7  C          0.72030900       0.69598850       0.17993130
     8  C          0.27969100       0.19598850       0.32006870
     9  H          0.30090000       0.23300000       0.76330000
    10  H          0.69910000       0.73300000       0.73670000
    11  H          0.69910000       0.76700000       0.23670000
    12  H          0.30090000       0.26700000       0.26330000
    13  C          0.17810100       0.36180150       0.78607870
    14  C          0.82189900       0.86180150       0.71392130
    15  C          0.82189900       0.63819850       0.21392130
    16  C          0.17810100       0.13819850       0.28607870
    17  C          0.14776100       0.46592160       0.86962860
    18  C          0.85223900       0.96592160       0.63037140
    19  C          0.85223900       0.53407840       0.13037140
    20  C          0.14776100       0.03407840       0.36962860
    21  H          0.07900000       0.50590000       0.84730000
    22  H          0.92100000       0.00590000       0.65270000
    23  H          0.92100000       0.49410000       0.15270000
    24  H          0.07900000      -0.00590000       0.34730000
    25  C          0.21849110       0.51093160       0.98555860
    26  C          0.78150890       0.01093160       0.51444140
    27  C          0.78150890       0.48906840       0.01444140
    28  C          0.21849110      -0.01093160       0.48555860
    29  H          0.19740000       0.58200000       0.04240000
    30  H          0.80260000       0.08200000       0.45760000
    31  H          0.80260000       0.41800000       0.95760000
    32  H          0.19740000       0.91800000       0.54240000
    33  C          0.31938100       0.45446150       0.02040130
    34  C          0.68061900       0.95446150       0.47959870
    35  C          0.68061900       0.54553850       0.97959870
    36  C          0.31938100       0.04553850       0.52040130
    37  H          0.36710000       0.48650000       0.10020000
    38  H          0.63290000      -0.01350000       0.39980000
    39  H          0.63290000       0.51350000       0.89980000
    40  H          0.36710000       0.01350000       0.60020000
    41  C          0.61509900       0.18177150       0.08633130
    42  C          0.38490100       0.68177150       0.41366870
    43  C          0.38490100       0.81822850       0.91366870
    44  C          0.61509900       0.31822850       0.58633130
    45  C          0.70073100       0.21520160       0.19180130
    46  C          0.29926900       0.71520160       0.30819870
    47  C          0.29926900       0.78479840       0.80819870
    48  C          0.70073100       0.28479840       0.69180130
    49  H          0.69400000       0.28020000       0.26210000
    50  H          0.30600000       0.78020000       0.23790000
    51  H          0.30600000       0.71980000       0.73790000
    52  H          0.69400000       0.21980000       0.76210000
    53  C          0.79523100       0.15098170       0.19065130
    54  C          0.20476900       0.65098170       0.30934870
    55  C          0.20476900       0.84901830       0.80934870
    56  C          0.79523100       0.34901830       0.69065130
    57  C          0.80894100       0.05195170       0.09503140
    58  C          0.19105900       0.55195170       0.40496860
    59  C          0.19105900       0.94804830       0.90496860
    60  C          0.80894100       0.44804830       0.59503140
    61  H          0.87540000       0.00910000       0.09860000
    62  H          0.12460000       0.50910000       0.40140000
    63  H          0.12460000      -0.00910000       0.90140000
    64  H          0.87540000       0.49090000       0.59860000
    65  C          0.72259110       0.01626160      -0.00728140
    66  C          0.27740890       0.51626160       0.50728140
    67  C          0.27740890       0.98373840       0.00728140
    68  C          0.72259110       0.48373840       0.49271860
    69  H          0.72930000       0.94590000       0.92610000
    70  H          0.27070000       0.44590000       0.57390000
    71  H          0.27070000       0.05410000       0.07390000
    72  H          0.72930000       0.55410000       0.42610000
    73  C          0.62650100       0.08235150      -0.01322130
    74  C          0.37349900       0.58235150       0.51322130
    75  C          0.37349900       0.91764850       0.01322130
    76  C          0.62650100       0.41764850       0.48677870
    77  H          0.56840000       0.05980000       0.91470000
    78  H          0.43160000       0.55980000       0.58530000
    79  H          0.43160000       0.94020000       0.08530000
    80  H          0.56840000       0.44020000       0.41470000
    81  C          0.51345900       0.25558150       0.08657120
    82  C          0.48654100       0.75558150       0.41342880
    83  C          0.48654100       0.74441850       0.91342880
    84  C          0.51345900       0.24441850       0.58657120
    85  C          0.10571100       0.31386170       0.66506850
    86  C          0.89428900       0.81386170       0.83493150
    87  C          0.89428900       0.68613830       0.33493150
    88  C          0.10571100       0.18613830       0.16506850
    89  C          0.04632120       0.27662000       0.56514830
    90  C          0.95367880       0.77662000       0.93485170
    91  C          0.95367880       0.72338000       0.43485170
    92  C          0.04632120       0.22338000       0.06514830
    93  H         -0.00150000       0.24660000       0.48470000
    94  H          0.00150000       0.74660000       0.01530000
    95  H          0.00150000       0.75340000       0.51530000
    96  H         -0.00150000       0.25340000       0.98470000
    97  F          0.87997600       0.18949120       0.29024900
    98  F          0.12002400       0.68949120       0.20975100
    99  F          0.12002400       0.81050880       0.70975100
   100  F          0.87997600       0.31050880       0.79024900
   101  N          0.45210800       0.28909130       0.96435890
   102  N          0.54789200       0.78909130       0.53564110
   103  N          0.54789200       0.71090870       0.03564110
   104  N          0.45210800       0.21090870       0.46435890
   105  H          0.47810000       0.27130000       0.89580000
   106  H          0.52190000       0.77130000       0.60420000
   107  H          0.52190000       0.72870000       0.10420000
   108  H          0.47810000       0.22870000       0.39580000
   109  O          0.48945700       0.28384120       0.19129900
   110  O          0.51054300       0.78384120       0.30870100
   111  O          0.51054300       0.71615880       0.80870100
   112  O          0.48945700       0.21615880       0.69129900
