data_LEBTAQ
_symmetry_space_group_name_H-M    'P1'
_symmetry_Int_Tables_number       1
loop_
_symmetry_equiv_pos_site_id
_symmetry_equiv_pos_as_xyz
1 x,y,z
_cell_length_a                   10.87849
_cell_length_b                   12.803011
_cell_length_c                   8.32497
_cell_angle_alpha                90.0
_cell_angle_beta                 90.1365
_cell_angle_gamma                90.0
loop_
_atom_site_label
_atom_site_type_symbol
_atom_site_fract_x
_atom_site_fract_y
_atom_site_fract_z
     1  C          0.65453000       0.09862000       0.39613000
     2  C          0.65453000       0.90138000       0.89613000
     3  C          0.15453000       0.59862000       0.39613000
     4  C          0.15453000       0.40138000       0.89613000
     5  C          0.74713000       0.06022000       0.29973000
     6  C          0.74713000       0.93978000       0.79973000
     7  C          0.24713000       0.56022000       0.29973000
     8  C          0.24713000       0.43978000       0.79973000
     9  H          0.76080100       0.98704500       0.29305200
    10  H          0.76080100       0.01295500       0.79305200
    11  H          0.26080100       0.48704500       0.29305200
    12  H          0.26080100       0.51295500       0.79305200
    13  C          0.82073000       0.12882000       0.21193000
    14  C          0.82073000       0.87118000       0.71193000
    15  C          0.32073000       0.62882000       0.21193000
    16  C          0.32073000       0.37118000       0.71193000
    17  C          0.80053000       0.23642000       0.22263000
    18  C          0.80053000       0.76358000       0.72263000
    19  C          0.30053000       0.73642000       0.22263000
    20  C          0.30053000       0.26358000       0.72263000
    21  H          0.84947700       0.28352600       0.16222600
    22  H          0.84947700       0.71647400       0.66222600
    23  H          0.34947700       0.78352600       0.16222600
    24  H          0.34947700       0.21647400       0.66222600
    25  C          0.70843000       0.27372000       0.32224000
    26  C          0.70843000       0.72628000       0.82224000
    27  C          0.20843000       0.77372000       0.32224000
    28  C          0.20843000       0.22628000       0.82224000
    29  H          0.69499500       0.34680900       0.33047500
    30  H          0.69499500       0.65319100       0.83047500
    31  H          0.19499500       0.84680900       0.33047500
    32  H          0.19499500       0.15319100       0.83047500
    33  C          0.63583000       0.20582000       0.40963000
    34  C          0.63583000       0.79418000       0.90963000
    35  C          0.13583000       0.70582000       0.40963000
    36  C          0.13583000       0.29418000       0.90963000
    37  H          0.57356400       0.23213600       0.47844200
    38  H          0.57356400       0.76786400       0.97844200
    39  H          0.07356400       0.73213600       0.47844200
    40  H          0.07356400       0.26786400       0.97844200
    41  C          0.45872000       0.87868000       0.55963000
    42  C          0.45872000       0.12132000       0.05963000
    43  C          0.95872000       0.37868000       0.55963000
    44  C          0.95872000       0.62132000       0.05963000
    45  C          0.37843000       0.93068000       0.66204000
    46  C          0.37843000       0.06932000       0.16204000
    47  C          0.87843000       0.43068000       0.66204000
    48  C          0.87843000       0.56932000       0.16204000
    49  H          0.37306000       0.00475100       0.66187100
    50  H          0.37306000      -0.00475100       0.16187100
    51  H          0.87306000       0.50475100       0.66187100
    52  H          0.87306000       0.49524900       0.16187100
    53  C          0.30683000       0.87138000       0.76364000
    54  C          0.30683000       0.12862000       0.26364000
    55  C          0.80683000       0.37138000       0.76364000
    56  C          0.80683000       0.62862000       0.26364000
    57  C          0.31043000       0.76398000       0.76853000
    58  C          0.31043000       0.23602000       0.26853000
    59  C          0.81043000       0.26398000       0.76853000
    60  C          0.81043000       0.73602000       0.26853000
    61  H          0.25962900       0.72587000       0.84025700
    62  H          0.25962900       0.27413000       0.34025700
    63  H          0.75962900       0.22587000       0.84025700
    64  H          0.75962900       0.77413000       0.34025700
    65  C          0.39053000       0.71328000       0.66514000
    66  C          0.39053000       0.28672000       0.16514000
    67  C          0.89053000       0.21328000       0.66514000
    68  C          0.89053000       0.78672000       0.16514000
    69  H          0.39518900       0.63922000       0.66587800
    70  H          0.39518900       0.36078000       0.16587800
    71  H          0.89518900       0.13922000       0.66587800
    72  H          0.89518900       0.86078000       0.16587800
    73  C          0.46383000       0.77018000       0.56053000
    74  C          0.46383000       0.22982000       0.06053000
    75  C          0.96383000       0.27018000       0.56053000
    76  C          0.96383000       0.72982000       0.06053000
    77  H          0.51772300       0.73478300       0.48921800
    78  H          0.51772300       0.26521700      -0.01078200
    79  H          0.01772300       0.23478300       0.48921800
    80  H          0.01772300       0.76521700      -0.01078200
    81  C          0.53853000       0.93588000       0.44253000
    82  C          0.53853000       0.06412000       0.94253000
    83  C          0.03853000       0.43588000       0.44253000
    84  C          0.03853000       0.56412000       0.94253000
    85  C          0.91933000       0.08712000       0.11264000
    86  C          0.91933000       0.91288000       0.61264000
    87  C          0.41933000       0.58712000       0.11264000
    88  C          0.41933000       0.41288000       0.61264000
    89  C         -0.00396000       0.04963000       0.03595000
    90  C         -0.00396000       0.95037000       0.53595000
    91  C          0.49604000       0.54963000       0.03595000
    92  C          0.49604000       0.45037000       0.53595000
    93  H          0.05896900       0.01876200       0.97285600
    94  H          0.05896900       0.98123800       0.47285600
    95  H          0.55896900       0.51876200       0.97285600
    96  H          0.55896900       0.48123800       0.47285600
    97  F          0.22805180       0.92257850       0.86452000
    98  F          0.22805180       0.07742150       0.36452000
    99  F          0.72805180       0.42257850       0.86452000
   100  F          0.72805180       0.57742150       0.36452000
   101  O          0.56305190       0.89555860       0.31092000
   102  O          0.56305190       0.10444140       0.81092000
   103  O          0.06305190       0.39555860       0.31092000
   104  O          0.06305190       0.60444140       0.81092000
   105  N          0.57882000       0.03088170       0.48903000
   106  N          0.57882000       0.96911830      -0.01097000
   107  N          0.07882000       0.53088170       0.48903000
   108  N          0.07882000       0.46911830      -0.01097000
   109  H          0.55640000       0.05286800       0.58477600
   110  H          0.55640000       0.94713200       0.08477600
   111  H          0.05640000       0.55286800       0.58477600
   112  H          0.05640000       0.44713200       0.08477600
