data_LEBTAQ03
_symmetry_space_group_name_H-M    'P1'
_symmetry_Int_Tables_number       1
loop_
_symmetry_equiv_pos_site_id
_symmetry_equiv_pos_as_xyz
1 x,y,z
_cell_length_a                   22.751916
_cell_length_b                   4.88523
_cell_length_c                   20.604215
_cell_angle_alpha                90.0
_cell_angle_beta                 91.4773
_cell_angle_gamma                90.0
loop_
_atom_site_label
_atom_site_type_symbol
_atom_site_fract_x
_atom_site_fract_y
_atom_site_fract_z
     1  C          0.68750500       0.21982000       0.67569600
     2  C          0.31249500       0.21982000       0.82430400
     3  C          0.18750500       0.71982000       0.67569600
     4  C          0.81249500       0.71982000       0.82430400
     5  C          0.31249500       0.78018000       0.32430400
     6  C          0.68750500       0.78018000       0.17569600
     7  C          0.81249500       0.28018000       0.32430400
     8  C          0.18750500       0.28018000       0.17569600
     9  C          0.64488500       0.02832000       0.65720600
    10  C          0.35511500       0.02832000       0.84279400
    11  C          0.14488500       0.52832000       0.65720600
    12  C          0.85511500       0.52832000       0.84279400
    13  C          0.35511500      -0.02832000       0.34279400
    14  C          0.64488500      -0.02832000       0.15720600
    15  C          0.85511500       0.47168000       0.34279400
    16  C          0.14488500       0.47168000       0.15720600
    17  H          0.64980000       0.92040000       0.61940000
    18  H          0.35020000       0.92040000       0.88060000
    19  H          0.14980000       0.42040000       0.61940000
    20  H          0.85020000       0.42040000       0.88060000
    21  H          0.35020000       0.07960000       0.38060000
    22  H          0.64980000       0.07960000       0.11940000
    23  H          0.85020000       0.57960000       0.38060000
    24  H          0.14980000       0.57960000       0.11940000
    25  C          0.59484500      -0.00482000       0.69438600
    26  C          0.40515500      -0.00482000       0.80561400
    27  C          0.09484500       0.49518000       0.69438600
    28  C          0.90515500       0.49518000       0.80561400
    29  C          0.40515500       0.00482000       0.30561400
    30  C          0.59484500       0.00482000       0.19438600
    31  C          0.90515500       0.50482000       0.30561400
    32  C          0.09484500       0.50482000       0.19438600
    33  C          0.58797500       0.15143000       0.75047600
    34  C          0.41202500       0.15143000       0.74952400
    35  C          0.08797500       0.65143000       0.75047600
    36  C          0.91202500       0.65143000       0.74952400
    37  C          0.41202500       0.84857000       0.24952400
    38  C          0.58797500       0.84857000       0.25047600
    39  C          0.91202500       0.34857000       0.24952400
    40  C          0.08797500       0.34857000       0.25047600
    41  H          0.55450000       0.12660000       0.77640000
    42  H          0.44550000       0.12660000       0.72360000
    43  H          0.05450000       0.62660000       0.77640000
    44  H          0.94550000       0.62660000       0.72360000
    45  H          0.44550000       0.87340000       0.22360000
    46  H          0.55450000       0.87340000       0.27640000
    47  H          0.94550000       0.37340000       0.22360000
    48  H          0.05450000       0.37340000       0.27640000
    49  C          0.63053600       0.34333000       0.76800600
    50  C          0.36946400       0.34333000       0.73199400
    51  C          0.13053600       0.84333000       0.76800600
    52  C          0.86946400       0.84333000       0.73199400
    53  C          0.36946400       0.65667000       0.23199400
    54  C          0.63053600       0.65667000       0.26800600
    55  C          0.86946400       0.15667000       0.23199400
    56  C          0.13053600       0.15667000       0.26800600
    57  H          0.62570000       0.45140000       0.80580000
    58  H          0.37430000       0.45140000       0.69420000
    59  H          0.12570000       0.95140000       0.80580000
    60  H          0.87430000       0.95140000       0.69420000
    61  H          0.37430000       0.54860000       0.19420000
    62  H          0.62570000       0.54860000       0.30580000
    63  H          0.87430000       0.04860000       0.19420000
    64  H          0.12570000       0.04860000       0.30580000
    65  C          0.68011500       0.37932000       0.73092600
    66  C          0.31988500       0.37932000       0.76907400
    67  C          0.18011500       0.87932000       0.73092600
    68  C          0.81988500       0.87932000       0.76907400
    69  C          0.31988500       0.62068000       0.26907400
    70  C          0.68011500       0.62068000       0.23092600
    71  C          0.81988500       0.12068000       0.26907400
    72  C          0.18011500       0.12068000       0.23092600
    73  H          0.70880000       0.51200000       0.74320000
    74  H          0.29120000       0.51200000       0.75680000
    75  H          0.20880000       0.01200000       0.74320000
    76  H          0.79120000       0.01200000       0.75680000
    77  H          0.29120000       0.48800000       0.25680000
    78  H          0.70880000       0.48800000       0.24320000
    79  H          0.79120000      -0.01200000       0.25680000
    80  H          0.20880000      -0.01200000       0.24320000
    81  C          0.81883500       0.16642000       0.56717600
    82  C          0.18116500       0.16642000       0.93282400
    83  C          0.31883500       0.66642000       0.56717600
    84  C          0.68116500       0.66642000       0.93282400
    85  C          0.18116500       0.83358000       0.43282400
    86  C          0.81883500       0.83358000       0.06717600
    87  C          0.68116500       0.33358000       0.43282400
    88  C          0.31883500       0.33358000       0.06717600
    89  C          0.85503500       0.37882000       0.58982600
    90  C          0.14496500       0.37882000       0.91017400
    91  C          0.35503500       0.87882000       0.58982600
    92  C          0.64496500       0.87882000       0.91017400
    93  C          0.14496500       0.62118000       0.41017400
    94  C          0.85503500       0.62118000       0.08982600
    95  C          0.64496500       0.12118000       0.41017400
    96  C          0.35503500       0.12118000       0.08982600
    97  H          0.84620000       0.47620000       0.62830000
    98  H          0.15380000       0.47620000       0.87170000
    99  H          0.34620000      -0.02380000       0.62830000
   100  H          0.65380000      -0.02380000       0.87170000
   101  H          0.15380000       0.52380000       0.37170000
   102  H          0.84620000       0.52380000       0.12830000
   103  H          0.65380000       0.02380000       0.37170000
   104  H          0.34620000       0.02380000       0.12830000
   105  C          0.90403500       0.44313000       0.55466600
   106  C          0.09596500       0.44313000       0.94533400
   107  C          0.40403500       0.94313000       0.55466600
   108  C          0.59596500       0.94313000       0.94533400
   109  C          0.09596500       0.55687000       0.44533400
   110  C          0.90403500       0.55687000       0.05466600
   111  C          0.59596500       0.05687000       0.44533400
   112  C          0.40403500       0.05687000       0.05466600
   113  C          0.91862600       0.31023000       0.49829600
   114  C          0.08137400       0.31023000       0.00170400
   115  C          0.41862600       0.81023000       0.49829600
   116  C          0.58137400       0.81023000       0.00170400
   117  C          0.08137400       0.68977000       0.50170400
   118  C          0.91862600       0.68977000      -0.00170400
   119  C          0.58137400       0.18977000       0.50170400
   120  C          0.41862600       0.18977000      -0.00170400
   121  H          0.95260000       0.36040000       0.47520000
   122  H          0.04740000       0.36040000       0.02480000
   123  H          0.45260000       0.86040000       0.47520000
   124  H          0.54740000       0.86040000       0.02480000
   125  H          0.04740000       0.63960000       0.52480000
   126  H          0.95260000       0.63960000       0.97520000
   127  H          0.54740000       0.13960000       0.52480000
   128  H          0.45260000       0.13960000       0.97520000
   129  C          0.88185600       0.10003000       0.47630600
   130  C          0.11814400       0.10003000       0.02369400
   131  C          0.38185600       0.60003000       0.47630600
   132  C          0.61814400       0.60003000       0.02369400
   133  C          0.11814400       0.89997000       0.52369400
   134  C          0.88185600       0.89997000       0.97630600
   135  C          0.61814400       0.39997000       0.52369400
   136  C          0.38185600       0.39997000       0.97630600
   137  H          0.89070000       0.00530000       0.43750000
   138  H          0.10930000       0.00530000       0.06250000
   139  H          0.39070000       0.50530000       0.43750000
   140  H          0.60930000       0.50530000       0.06250000
   141  H          0.10930000      -0.00530000       0.56250000
   142  H          0.89070000      -0.00530000       0.93750000
   143  H          0.60930000       0.49470000       0.56250000
   144  H          0.39070000       0.49470000       0.93750000
   145  C          0.83233500       0.02713000       0.51058600
   146  C          0.16766500       0.02713000       0.98941400
   147  C          0.33233500       0.52713000       0.51058600
   148  C          0.66766500       0.52713000       0.98941400
   149  C          0.16766500      -0.02713000       0.48941400
   150  C          0.83233500      -0.02713000       0.01058600
   151  C          0.66766500       0.47287000       0.48941400
   152  C          0.33233500       0.47287000       0.01058600
   153  H          0.80780000       0.88220000       0.49540000
   154  H          0.19220000       0.88220000       0.00460000
   155  H          0.30780000       0.38220000       0.49540000
   156  H          0.69220000       0.38220000       0.00460000
   157  H          0.19220000       0.11780000       0.50460000
   158  H          0.80780000       0.11780000      -0.00460000
   159  H          0.69220000       0.61780000       0.50460000
   160  H          0.30780000       0.61780000      -0.00460000
   161  C          0.76624500       0.07262000       0.60386600
   162  C          0.23375500       0.07262000       0.89613400
   163  C          0.26624500       0.57262000       0.60386600
   164  C          0.73375500       0.57262000       0.89613400
   165  C          0.23375500       0.92738000       0.39613400
   166  C          0.76624500       0.92738000       0.10386600
   167  C          0.73375500       0.42738000       0.39613400
   168  C          0.26624500       0.42738000       0.10386600
   169  C          0.55020500       0.80357000       0.67245600
   170  C          0.44979500       0.80357000       0.82754400
   171  C          0.05020500       0.30357000       0.67245600
   172  C          0.94979500       0.30357000       0.82754400
   173  C          0.44979500       0.19643000       0.32754400
   174  C          0.55020500       0.19643000       0.17245600
   175  C          0.94979500       0.69643000       0.32754400
   176  C          0.05020500       0.69643000       0.17245600
   177  C          0.51424600       0.64677000       0.65221700
   178  C          0.48575400       0.64677000       0.84778300
   179  C          0.01424600       0.14677000       0.65221700
   180  C          0.98575400       0.14677000       0.84778300
   181  C          0.48575400       0.35323000       0.34778300
   182  C          0.51424600       0.35323000       0.15221700
   183  C          0.98575400       0.85323000       0.34778300
   184  C          0.01424600       0.85323000       0.15221700
   185  H          0.48550000       0.52150000       0.63600000
   186  H          0.51450000       0.52150000       0.86400000
   187  H          0.98550000       0.02150000       0.63600000
   188  H          0.01450000       0.02150000       0.86400000
   189  H          0.51450000       0.47850000       0.36400000
   190  H          0.48550000       0.47850000       0.13600000
   191  H          0.01450000      -0.02150000       0.36400000
   192  H          0.98550000      -0.02150000       0.13600000
   193  F          0.93954300       0.64823170       0.57722400
   194  F          0.06045700       0.64823170       0.92277600
   195  F          0.43954300       0.14823170       0.57722400
   196  F          0.56045700       0.14823170       0.92277600
   197  F          0.06045700       0.35176830       0.42277600
   198  F          0.93954300       0.35176830       0.07722400
   199  F          0.56045700       0.85176830       0.42277600
   200  F          0.43954300       0.85176830       0.07722400
   201  O          0.75116400       0.83015830       0.60276500
   202  O          0.24883600       0.83015830       0.89723500
   203  O          0.25116400       0.33015830       0.60276500
   204  O          0.74883600       0.33015830       0.89723500
   205  O          0.24883600       0.16984170       0.39723500
   206  O          0.75116400       0.16984170       0.10276500
   207  O          0.74883600       0.66984170       0.39723500
   208  O          0.25116400       0.66984170       0.10276500
   209  N          0.73808400       0.26682000       0.63782500
   210  N          0.26191600       0.26682000       0.86217500
   211  N          0.23808400       0.76682000       0.63782500
   212  N          0.76191600       0.76682000       0.86217500
   213  N          0.26191600       0.73318000       0.36217500
   214  N          0.73808400       0.73318000       0.13782500
   215  N          0.76191600       0.23318000       0.36217500
   216  N          0.23808400       0.23318000       0.13782500
   217  H          0.75200000       0.43480000       0.63650000
   218  H          0.24800000       0.43480000       0.86350000
   219  H          0.25200000       0.93480000       0.63650000
   220  H          0.74800000       0.93480000       0.86350000
   221  H          0.24800000       0.56520000       0.36350000
   222  H          0.75200000       0.56520000       0.13650000
   223  H          0.74800000       0.06520000       0.36350000
   224  H          0.25200000       0.06520000       0.13650000
