data_LEPPUS02
_symmetry_space_group_name_H-M    'P1'
_symmetry_Int_Tables_number       1
loop_
_symmetry_equiv_pos_site_id
_symmetry_equiv_pos_as_xyz
1 x,y,z
_cell_length_a                   4.94814
_cell_length_b                   23.930717
_cell_length_c                   14.29431
_cell_angle_alpha                90.0
_cell_angle_beta                 99.10701
_cell_angle_gamma                90.0
loop_
_atom_site_label
_atom_site_type_symbol
_atom_site_fract_x
_atom_site_fract_y
_atom_site_fract_z
     1  Cl         0.11152180       0.57215300       0.39031600
     2  Cl         0.88847820       0.07215300       0.10968400
     3  Cl         0.88847820       0.42784700       0.60968400
     4  Cl         0.11152180       0.92784700       0.89031600
     5  O          0.91626000       0.74927700       0.22609120
     6  O          0.08374000       0.24927700       0.27390880
     7  O          0.08374000       0.25072300       0.77390880
     8  O          0.91626000       0.75072300       0.72609120
     9  O          0.34876000       0.57168100       0.03334160
    10  O          0.65124000       0.07168100       0.46665840
    11  O          0.65124000       0.42831900       0.96665840
    12  O          0.34876000       0.92831900       0.53334160
    13  H          0.23540000       0.59670000       0.03290000
    14  H          0.76460000       0.09670000       0.46710000
    15  H          0.76460000       0.40330000       0.96710000
    16  H          0.23540000       0.90330000       0.53290000
    17  N          0.61995000       0.76961900       0.08793140
    18  N          0.38005000       0.26961900       0.41206860
    19  N          0.38005000       0.23038100       0.91206860
    20  N          0.61995000       0.73038100       0.58793140
    21  N          0.58955000       0.75034100      -0.00602150
    22  N          0.41045000       0.25034100       0.50602150
    23  N          0.41045000       0.24965900       0.00602150
    24  N          0.58955000       0.74965900       0.49397850
    25  N          0.10465000       0.65653900       0.09525150
    26  N          0.89535000       0.15653900       0.40474850
    27  N          0.89535000       0.34346100       0.90474850
    28  N          0.10465000       0.84346100       0.59525150
    29  C          0.56694000       0.82720110       0.10485180
    30  C          0.43306000       0.32720110       0.39514820
    31  C          0.43306000       0.17279890       0.89514820
    32  C          0.56694000       0.67279890       0.60485180
    33  C          0.68964000       0.86830120       0.05972000
    34  C          0.31036000       0.36830120       0.44028000
    35  C          0.31036000       0.13169880       0.94028000
    36  C          0.68964000       0.63169880       0.55972000
    37  H          0.80570000       0.85890000       0.01690000
    38  H          0.19430000       0.35890000       0.48310000
    39  H          0.19430000       0.14110000       0.98310000
    40  H          0.80570000       0.64110000       0.51690000
    41  C          0.64103000       0.92350130       0.07783000
    42  C          0.35897000       0.42350130       0.42217000
    43  C          0.35897000       0.07649870       0.92217000
    44  C          0.64103000       0.57649870       0.57783000
    45  H          0.72280000       0.95140000       0.04660000
    46  H          0.27720000       0.45140000       0.45340000
    47  H          0.27720000       0.04860000       0.95340000
    48  H          0.72280000       0.54860000       0.54660000
    49  C          0.47442000       0.93738140       0.14093000
    50  C          0.52558000       0.43738140       0.35907000
    51  C          0.52558000       0.06261860       0.85907000
    52  C          0.47442000       0.56261860       0.64093000
    53  H          0.44410000       0.97480000       0.15350000
    54  H          0.55590000       0.47480000       0.34650000
    55  H          0.55590000       0.02520000       0.84650000
    56  H          0.44410000       0.52520000       0.65350000
    57  C          0.35112000       0.89663150       0.18612000
    58  C          0.64888000       0.39663150       0.31388000
    59  C          0.64888000       0.10336850       0.81388000
    60  C          0.35112000       0.60336850       0.68612000
    61  H          0.23730000       0.90640000       0.22940000
    62  H          0.76270000       0.40640000       0.27060000
    63  H          0.76270000       0.09360000       0.77060000
    64  H          0.23730000       0.59360000       0.72940000
    65  C          0.39503000       0.84078140       0.16782000
    66  C          0.60497000       0.34078140       0.33218000
    67  C          0.60497000       0.15921860       0.83218000
    68  C          0.39503000       0.65921860       0.66782000
    69  H          0.30930000       0.81290000       0.19770000
    70  H          0.69070000       0.31290000       0.30230000
    71  H          0.69070000       0.18710000       0.80230000
    72  H          0.30930000       0.68710000       0.69770000
    73  C          0.82924000       0.73884100       0.14241170
    74  C          0.17076000       0.23884100       0.35758830
    75  C          0.17076000       0.26115900       0.85758830
    76  C          0.82924000       0.76115900       0.64241170
    77  C          0.90094000       0.69652100       0.07927170
    78  C          0.09906000       0.19652100       0.42072830
    79  C          0.09906000       0.30347900       0.92072830
    80  C          0.90094000       0.80347900       0.57927170
    81  C          0.74253000       0.70445120      -0.00754180
    82  C          0.25747000       0.20445120       0.50754180
    83  C          0.25747000       0.29554880       0.00754180
    84  C          0.74253000       0.79554880       0.49245820
    85  C          0.73081000       0.66901140       0.90590810
    86  C          0.26919000       0.16901140       0.59409190
    87  C          0.26919000       0.33098860       0.09409190
    88  C          0.73081000       0.83098860       0.40590810
    89  H          0.55330000       0.65210000       0.89130000
    90  H          0.44670000       0.15210000       0.60870000
    91  H          0.44670000       0.34790000       0.10870000
    92  H          0.55330000       0.84790000       0.39130000
    93  H          0.86800000       0.64040000       0.91720000
    94  H          0.13200000       0.14040000       0.58280000
    95  H          0.13200000       0.35960000       0.08280000
    96  H          0.86800000       0.85960000       0.41720000
    97  H          0.76400000       0.69180000       0.85360000
    98  H          0.23600000       0.19180000       0.64640000
    99  H          0.23600000       0.30820000       0.14640000
   100  H          0.76400000       0.80820000       0.35360000
   101  C          0.34283000       0.76547150       0.92978000
   102  C          0.65717000       0.26547150       0.57022000
   103  C          0.65717000       0.23452850       0.07022000
   104  C          0.34283000       0.73452850       0.42978000
   105  H          0.35370000       0.75140000       0.86760000
   106  H          0.64630000       0.25140000       0.63240000
   107  H          0.64630000       0.24860000       0.13240000
   108  H          0.35370000       0.74860000       0.36760000
   109  H          0.32540000       0.80540000       0.92740000
   110  H          0.67460000       0.30540000       0.57260000
   111  H          0.67460000       0.19460000       0.07260000
   112  H          0.32540000       0.69460000       0.42740000
   113  H          0.18660000       0.74960000       0.95200000
   114  H          0.81340000       0.24960000       0.54800000
   115  H          0.81340000       0.25040000       0.04800000
   116  H          0.18660000       0.75040000       0.45200000
   117  C          0.27306000       0.65315100       0.17295180
   118  C          0.72694000       0.15315100       0.32704820
   119  C          0.72694000       0.34684900       0.82704820
   120  C          0.27306000       0.84684900       0.67295180
   121  H          0.25640000       0.67810000       0.22170000
   122  H          0.74360000       0.17810000       0.27830000
   123  H          0.74360000       0.32190000       0.77830000
   124  H          0.25640000       0.82190000       0.72170000
   125  C          0.48886000       0.61159100       0.18707190
   126  C          0.51114000       0.11159100       0.31292810
   127  C          0.51114000       0.38840900       0.81292810
   128  C          0.48886000       0.88840900       0.68707190
   129  C          0.51967000       0.57211120       0.11692000
   130  C          0.48033000       0.07211120       0.38308000
   131  C          0.48033000       0.42788880       0.88308000
   132  C          0.51967000       0.92788880       0.61692000
   133  C          0.72857000       0.53307130       0.13302000
   134  C          0.27143000       0.03307130       0.36698000
   135  C          0.27143000       0.46692870       0.86698000
   136  C          0.72857000       0.96692870       0.63302000
   137  H          0.74680000       0.50670000       0.08660000
   138  H          0.25320000       0.00670000       0.41340000
   139  H          0.25320000       0.49330000       0.91340000
   140  H          0.74680000       0.99330000       0.58660000
   141  C          0.90807000       0.53264120       0.21622000
   142  C          0.09193000       0.03264120       0.28378000
   143  C          0.09193000       0.46735880       0.78378000
   144  C          0.90807000       0.96735880       0.71622000
   145  H          0.04770000       0.50630000       0.22640000
   146  H          0.95230000       0.00630000       0.27360000
   147  H          0.95230000       0.49370000       0.77360000
   148  H          0.04770000       0.99370000       0.72640000
   149  C          0.87986000       0.57168110       0.28492000
   150  C          0.12014000       0.07168110       0.21508000
   151  C          0.12014000       0.42831890       0.71508000
   152  C          0.87986000       0.92831890       0.78492000
   153  C          0.67556000       0.61063110       0.27047190
   154  C          0.32444000       0.11063110       0.22952810
   155  C          0.32444000       0.38936890       0.72952810
   156  C          0.67556000       0.88936890       0.77047190
   157  H          0.66140000       0.63690000       0.31730000
   158  H          0.33860000       0.13690000       0.18270000
   159  H          0.33860000       0.36310000       0.68270000
   160  H          0.66140000       0.86310000       0.81730000
