data_LEPPUS01
_symmetry_space_group_name_H-M    'P1'
_symmetry_Int_Tables_number       1
loop_
_symmetry_equiv_pos_site_id
_symmetry_equiv_pos_as_xyz
1 x,y,z
_cell_length_a                   11.9677
_cell_length_b                   7.0414
_cell_length_c                   20.9471
_cell_angle_alpha                90.0
_cell_angle_beta                 109.343
_cell_angle_gamma                90.0
loop_
_atom_site_label
_atom_site_type_symbol
_atom_site_fract_x
_atom_site_fract_y
_atom_site_fract_z
     1  Cl         0.56443100       0.96942840       0.41796700
     2  Cl         0.43556900       0.46942840       0.08203300
     3  Cl         0.43556900       0.03057160       0.58203300
     4  Cl         0.56443100       0.53057160       0.91796700
     5  O          0.83252000       0.68114000       0.48286140
     6  O          0.16748000       0.18114000       0.01713860
     7  O          0.16748000       0.31886000       0.51713860
     8  O          0.83252000       0.81886000       0.98286140
     9  H          0.88040000       0.68930000       0.46260000
    10  H          0.11960000       0.18930000       0.03740000
    11  H          0.11960000       0.31070000       0.53740000
    12  H          0.88040000       0.81070000       0.96260000
    13  O          0.04477180       0.33053000       0.30864130
    14  O          0.95522820       0.83053000       0.19135870
    15  O          0.95522820       0.66947000       0.69135870
    16  O          0.04477180       0.16947000       0.80864130
    17  N          0.94232000       0.57824000       0.40023140
    18  N          0.05768000       0.07824000       0.09976860
    19  N          0.05768000       0.42176000       0.59976860
    20  N          0.94232000       0.92176000       0.90023140
    21  N          0.17412000       0.77483000       0.34951150
    22  N          0.82588000       0.27483000       0.15048850
    23  N          0.82588000       0.22517000       0.65048850
    24  N          0.17412000       0.72517000       0.84951150
    25  N          0.15811190       0.60173000       0.31420140
    26  N          0.84188810       0.10173000       0.18579860
    27  N          0.84188810       0.39827000       0.68579860
    28  N          0.15811190       0.89827000       0.81420140
    29  C          0.64633000       0.18005000       0.43720190
    30  C          0.35367000       0.68005000       0.06279810
    31  C          0.35367000       0.81995000       0.56279810
    32  C          0.64633000       0.31995000       0.93720190
    33  C          0.73013000       0.21655000       0.40757190
    34  C          0.26987000       0.71655000       0.09242810
    35  C          0.26987000       0.78345000       0.59242810
    36  C          0.73013000       0.28345000       0.90757190
    37  H          0.74400000       0.12810000       0.37810000
    38  H          0.25600000       0.62810000       0.12190000
    39  H          0.25600000       0.87190000       0.62190000
    40  H          0.74400000       0.37190000       0.87810000
    41  C          0.79513000       0.38604000       0.42126170
    42  C          0.20487000       0.88604000       0.07873830
    43  C          0.20487000       0.61396000       0.57873830
    44  C          0.79513000       0.11396000       0.92126170
    45  C          0.77273000       0.51625000       0.46655180
    46  C          0.22727000       0.01625000       0.03344820
    47  C          0.22727000       0.48375000       0.53344820
    48  C          0.77273000      -0.01625000       0.96655180
    49  C          0.68673000       0.47466000       0.49562000
    50  C          0.31327000       0.97466000       0.00438000
    51  C          0.31327000       0.52534000       0.50438000
    52  C          0.68673000       0.02534000      -0.00438000
    53  H          0.67130000       0.56120000       0.52520000
    54  H          0.32870000       0.06120000       0.97480000
    55  H          0.32870000       0.43880000       0.47480000
    56  H          0.67130000       0.93880000       0.02520000
    57  C          0.62413000       0.30796000       0.48132000
    58  C          0.37587000       0.80796000       0.01868000
    59  C          0.37587000       0.69204000       0.51868000
    60  C          0.62413000       0.19204000       0.98132000
    61  H          0.56700000       0.28140000       0.50130000
    62  H          0.43300000       0.78140000      -0.00130000
    63  H          0.43300000       0.71860000       0.49870000
    64  H          0.56700000       0.21860000       0.00130000
    65  C          0.88293000       0.42274000       0.38941180
    66  C          0.11707000       0.92274000       0.11058820
    67  C          0.11707000       0.57726000       0.61058820
    68  C          0.88293000       0.07726000       0.88941180
    69  H          0.89680000       0.33220000       0.36060000
    70  H          0.10320000       0.83220000       0.13940000
    71  H          0.10320000       0.66780000       0.63940000
    72  H          0.89680000       0.16780000       0.86060000
    73  C          0.02822000       0.61654000       0.37059160
    74  C          0.97178000       0.11654000       0.12940840
    75  C          0.97178000       0.38346000       0.62940840
    76  C          0.02822000       0.88346000       0.87059160
    77  C          0.07062000       0.49484000       0.32853180
    78  C          0.92938000      -0.00516000       0.17146820
    79  C          0.92938000       0.50516000       0.67146820
    80  C          0.07062000       0.00516000       0.82853180
    81  C          0.09033000       0.78434000       0.37986170
    82  C          0.90967000       0.28434000       0.12013830
    83  C          0.90967000       0.21566000       0.62013830
    84  C          0.09033000       0.71566000       0.87986170
    85  C          0.25302000       0.52204000       0.29700170
    86  C          0.74698000       0.02204000       0.20299830
    87  C          0.74698000       0.47796000       0.70299830
    88  C          0.25302000       0.97796000       0.79700170
    89  C          0.22863000       0.40045000       0.24218190
    90  C          0.77137000       0.90045000       0.25781810
    91  C          0.77137000       0.59955000       0.75781810
    92  C          0.22863000       0.09955000       0.74218190
    93  H          0.15060000       0.37580000       0.21590000
    94  H          0.84940000       0.87580000       0.28410000
    95  H          0.84940000       0.62420000       0.78410000
    96  H          0.15060000       0.12420000       0.71590000
    97  C          0.32003000       0.31625000       0.22672000
    98  C          0.67997000       0.81625000       0.27328000
    99  C          0.67997000       0.68375000       0.77328000
   100  C          0.32003000       0.18375000       0.72672000
   101  H          0.30360000       0.23240000       0.19050000
   102  H          0.69640000       0.73240000       0.30950000
   103  H          0.69640000       0.76760000       0.80950000
   104  H          0.30360000       0.26760000       0.69050000
   105  C          0.43523000       0.35495000       0.26452000
   106  C          0.56477000       0.85495000       0.23548000
   107  C          0.56477000       0.64505000       0.73548000
   108  C          0.43523000       0.14505000       0.76452000
   109  H          0.49690000       0.29840000       0.25370000
   110  H          0.50310000       0.79840000       0.24630000
   111  H          0.50310000       0.70160000       0.74630000
   112  H          0.49690000       0.20160000       0.75370000
   113  C          0.45913000       0.47715000       0.31822190
   114  C          0.54087000       0.97715000       0.18177810
   115  C          0.54087000       0.52285000       0.68177810
   116  C          0.45913000       0.02285000       0.81822190
   117  H          0.53730000       0.50480000       0.34340000
   118  H          0.46270000       0.00480000       0.15660000
   119  H          0.46270000       0.49520000       0.65660000
   120  H          0.53730000      -0.00480000       0.84340000
   121  C          0.36913000       0.55904000       0.33530170
   122  C          0.63087000       0.05904000       0.16469830
   123  C          0.63087000       0.44096000       0.66469830
   124  C          0.36913000       0.94096000       0.83530170
   125  H          0.38620000       0.63920000       0.37260000
   126  H          0.61380000       0.13920000       0.12740000
   127  H          0.61380000       0.36080000       0.62740000
   128  H          0.38620000       0.86080000       0.87260000
   129  C          0.21233000       0.93914000       0.31892000
   130  C          0.78767000       0.43914000       0.18108000
   131  C          0.78767000       0.06086000       0.68108000
   132  C          0.21233000       0.56086000       0.81892000
   133  H          0.15010000       0.97530000       0.27830000
   134  H          0.84990000       0.47530000       0.22170000
   135  H          0.84990000       0.02470000       0.72170000
   136  H          0.15010000       0.52470000       0.77830000
   137  H          0.28180000       0.90630000       0.30800000
   138  H          0.71820000       0.40630000       0.19200000
   139  H          0.71820000       0.09370000       0.69200000
   140  H          0.28180000       0.59370000       0.80800000
   141  H          0.23010000       0.04330000       0.35020000
   142  H          0.76990000       0.54330000       0.14980000
   143  H          0.76990000       0.95670000       0.64980000
   144  H          0.23010000       0.45670000       0.85020000
   145  C          0.07553000       0.95715000       0.41712000
   146  C          0.92447000       0.45715000       0.08288000
   147  C          0.92447000       0.04285000       0.58288000
   148  C          0.07553000       0.54285000       0.91712000
   149  H          0.15020000      -0.00940000       0.45000000
   150  H          0.84980000       0.49060000       0.05000000
   151  H          0.84980000       0.00940000       0.55000000
   152  H          0.15020000       0.50940000       0.95000000
   153  H          0.01890000       0.93210000       0.43960000
   154  H          0.98110000       0.43210000       0.06040000
   155  H          0.98110000       0.06790000       0.56040000
   156  H          0.01890000       0.56790000       0.93960000
   157  H          0.04780000       0.06000000       0.38580000
   158  H          0.95220000       0.56000000       0.11420000
   159  H          0.95220000       0.94000000       0.61420000
   160  H          0.04780000       0.44000000       0.88580000
