data_LEPPUS
_symmetry_space_group_name_H-M    'P1'
_symmetry_Int_Tables_number       1
loop_
_symmetry_equiv_pos_site_id
_symmetry_equiv_pos_as_xyz
1 x,y,z
_cell_length_a                   14.4267
_cell_length_b                   6.8763
_cell_length_c                   17.5559
_cell_angle_alpha                90.0
_cell_angle_beta                 109.1356
_cell_angle_gamma                90.0
loop_
_atom_site_label
_atom_site_type_symbol
_atom_site_fract_x
_atom_site_fract_y
_atom_site_fract_z
     1  Cl         0.16384500      -0.00217120       0.12299400
     2  Cl         0.33615500       0.49782880       0.37700600
     3  Cl         0.83615500       0.00217120       0.87700600
     4  Cl         0.66384500       0.50217120       0.62299400
     5  N          0.57399160       0.62203000       0.87557140
     6  N          0.92600840       0.12203000       0.62442860
     7  N          0.42600840       0.37797000       0.12442860
     8  N          0.07399160       0.87797000       0.37557140
     9  N          0.57798160       0.79333000       0.92010140
    10  N          0.92201840       0.29333000       0.57989860
    11  N          0.42201840       0.20667000       0.07989860
    12  N          0.07798160       0.70667000       0.42010140
    13  N          0.81677150       0.61013000       0.02356130
    14  N          0.68322850       0.11013000       0.47643870
    15  N          0.18322850       0.38987000       0.97643870
    16  N          0.31677150       0.88987000       0.52356130
    17  O          0.67464130       0.35263000       0.88862120
    18  O          0.82535870       0.85263000       0.61137880
    19  O          0.32535870       0.64737000       0.11137880
    20  O          0.17464130       0.14737000       0.38862120
    21  O          0.96306160       0.72273000       0.14603140
    22  O          0.53693840       0.22273000       0.35396860
    23  O          0.03693840       0.27727000       0.85396860
    24  O          0.46306160       0.77727000       0.64603140
    25  H          0.90920000       0.72980000       0.11080000
    26  H          0.59080000       0.22980000       0.38920000
    27  H          0.09080000       0.27020000       0.88920000
    28  H          0.40920000       0.77020000       0.61080000
    29  C          0.66155190       0.51784000       0.90874160
    30  C          0.83844810       0.01784000       0.59125840
    31  C          0.33844810       0.48216000       0.09125840
    32  C          0.16155190      -0.01784000       0.40874160
    33  C          0.72283180       0.64484000       0.96942160
    34  C          0.77716820       0.14484000       0.53057840
    35  C          0.27716820       0.35516000       0.03057840
    36  C          0.22283180       0.85516000       0.46942160
    37  C          0.67122000       0.80864000       0.97288170
    38  C          0.82878000       0.30864000       0.52711830
    39  C          0.32878000       0.19136000       0.02711830
    40  C          0.17122000       0.69136000       0.47288170
    41  C          0.48145180       0.52684000       0.84237160
    42  C          0.01854820       0.02684000       0.65762840
    43  C          0.51854820       0.47316000       0.15762840
    44  C          0.98145180       0.97316000       0.34237160
    45  C          0.46322000       0.42394000       0.77215180
    46  C          0.03678000       0.92394000       0.72784820
    47  C          0.53678000       0.57606000       0.22784820
    48  C          0.96322000       0.07606000       0.27215180
    49  H          0.50940000       0.42010000       0.74570000
    50  H         -0.00940000       0.92010000       0.75430000
    51  H          0.49060000       0.57990000       0.25430000
    52  H          0.00940000       0.07990000       0.24570000
    53  C          0.37542000       0.32625000       0.74127190
    54  C          0.12458000       0.82625000       0.75872810
    55  C          0.62458000       0.67375000       0.25872810
    56  C          0.87542000       0.17375000       0.24127190
    57  H          0.36320000       0.25350000       0.69430000
    58  H          0.13680000       0.75350000       0.80570000
    59  H          0.63680000       0.74650000       0.30570000
    60  H          0.86320000       0.24650000       0.19430000
    61  C          0.30602000       0.33455000       0.77852000
    62  C          0.19398000       0.83455000       0.72148000
    63  C          0.69398000       0.66545000       0.22148000
    64  C          0.80602000       0.16545000       0.27852000
    65  H          0.24670000       0.26920000       0.75690000
    66  H          0.25330000       0.76920000       0.74310000
    67  H          0.75330000       0.73080000       0.24310000
    68  H          0.74670000       0.23080000       0.25690000
    69  C          0.32462000       0.43975000       0.84782000
    70  C          0.17538000       0.93975000       0.65218000
    71  C          0.67538000       0.56025000       0.15218000
    72  C          0.82462000       0.06025000       0.34782000
    73  H          0.27710000       0.44730000       0.87290000
    74  H          0.22290000       0.94730000       0.62710000
    75  H          0.72290000       0.55270000       0.12710000
    76  H          0.77710000       0.05270000       0.37290000
    77  C          0.41242000       0.53434000       0.88099170
    78  C          0.08758000       0.03434000       0.61900830
    79  C          0.58758000       0.46566000       0.11900830
    80  C          0.91242000       0.96566000       0.38099170
    81  H          0.42510000       0.60290000       0.92900000
    82  H          0.07490000       0.10290000       0.57100000
    83  H          0.57490000       0.39710000       0.07100000
    84  H          0.92510000       0.89710000       0.42900000
    85  C          0.52232000       0.96014000       0.87582000
    86  C          0.97768000       0.46014000       0.62418000
    87  C          0.47768000       0.03986000       0.12418000
    88  C          0.02232000       0.53986000       0.37582000
    89  H          0.51730000       0.05770000       0.91330000
    90  H          0.98270000       0.55770000       0.58670000
    91  H          0.48270000       0.94230000       0.08670000
    92  H          0.01730000       0.44230000       0.41330000
    93  H          0.45780000       0.91840000       0.84380000
    94  H          0.04220000       0.41840000       0.65620000
    95  H          0.54220000       0.08160000       0.15620000
    96  H          0.95780000       0.58160000       0.34380000
    97  H          0.55550000       0.01330000       0.84120000
    98  H          0.94450000       0.51330000       0.65880000
    99  H          0.44450000      -0.01330000       0.15880000
   100  H          0.05550000       0.48670000       0.34120000
   101  C          0.70302000      -0.01626000       0.02442000
   102  C          0.79698000       0.48374000       0.47558000
   103  C          0.29698000       0.01626000       0.97558000
   104  C          0.20302000       0.51626000       0.52442000
   105  H          0.76910000       0.96570000       0.05980000
   106  H          0.73090000       0.46570000       0.44020000
   107  H          0.23090000       0.03430000       0.94020000
   108  H          0.26910000       0.53430000       0.55980000
   109  H          0.66040000       0.00300000       0.05580000
   110  H          0.83960000       0.50300000       0.44420000
   111  H          0.33960000      -0.00300000       0.94420000
   112  H          0.16040000       0.49700000       0.55580000
   113  H          0.70020000       0.09540000       0.99090000
   114  H          0.79980000       0.59540000       0.50910000
   115  H          0.29980000       0.90460000       0.00910000
   116  H          0.20020000       0.40460000       0.49090000
   117  C          0.86520180       0.45464000       0.01927150
   118  C          0.63479820       0.95464000       0.48072850
   119  C          0.13479820       0.54536000       0.98072850
   120  C          0.36520180       0.04536000       0.51927150
   121  H          0.83810000       0.36440000       0.97860000
   122  H          0.66190000       0.86440000       0.52140000
   123  H          0.16190000       0.63560000       0.02140000
   124  H          0.33810000       0.13560000       0.47860000
   125  C          0.96174170       0.41994000       0.07774150
   126  C          0.53825830       0.91994000       0.42225850
   127  C          0.03825830       0.58006000       0.92225850
   128  C          0.46174170       0.08006000       0.57774150
   129  C          0.00715190       0.55414000       0.13778170
   130  C          0.49284810       0.05414000       0.36221830
   131  C         -0.00715190       0.44586000       0.86221830
   132  C          0.50715190       0.94586000       0.63778170
   133  C          0.09992000       0.51505000       0.19128180
   134  C          0.40008000       0.01505000       0.30871820
   135  C          0.90008000       0.48495000       0.80871820
   136  C          0.59992000      -0.01505000       0.69128180
   137  H          0.13030000       0.60560000       0.23090000
   138  H          0.36970000       0.10560000       0.26910000
   139  H          0.86970000       0.39440000       0.76910000
   140  H          0.63030000       0.89440000       0.73090000
   141  C          0.14742000       0.34575000       0.18679170
   142  C          0.35258000       0.84575000       0.31320830
   143  C          0.85258000       0.65425000       0.81320830
   144  C          0.64742000       0.15425000       0.68679170
   145  H          0.20960000       0.32120000       0.22310000
   146  H          0.29040000       0.82120000       0.27690000
   147  H          0.79040000       0.67880000       0.77690000
   148  H          0.70960000       0.17880000       0.72310000
   149  C          0.10271180       0.21274000       0.12833150
   150  C          0.39728820       0.71274000       0.37166850
   151  C          0.89728820       0.78726000       0.87166850
   152  C          0.60271180       0.28726000       0.62833150
   153  C          0.01111170       0.24854000       0.07417140
   154  C          0.48888830       0.74854000       0.42582860
   155  C         -0.01111170       0.75146000       0.92582860
   156  C          0.51111170       0.25146000       0.57417140
   157  H          0.98180000       0.15680000       0.03460000
   158  H          0.51820000       0.65680000       0.46540000
   159  H          0.01820000       0.84320000       0.96540000
   160  H          0.48180000       0.34320000       0.53460000
