data_LEQZIS04
_symmetry_space_group_name_H-M    'P1'
_symmetry_Int_Tables_number       1
loop_
_symmetry_equiv_pos_site_id
_symmetry_equiv_pos_as_xyz
1 x,y,z
_cell_length_a                   7.181501
_cell_length_b                   12.99562
_cell_length_c                   16.81193
_cell_angle_alpha                90.0
_cell_angle_beta                 90.0
_cell_angle_gamma                90.0
loop_
_atom_site_label
_atom_site_type_symbol
_atom_site_fract_x
_atom_site_fract_y
_atom_site_fract_z
     1  S          0.40075700       0.42402300       0.44625300
     2  S          0.09924300       0.57597700       0.94625300
     3  S          0.59924300       0.92402300       0.05374700
     4  S          0.90075700       0.07597700       0.55374700
     5  O          0.47872000       0.26280100       0.63414800
     6  O          0.02128000       0.73719900       0.13414800
     7  O          0.52128000       0.76280100       0.86585200
     8  O          0.97872000       0.23719900       0.36585200
     9  N          0.44642000       0.91758130       0.58495100
    10  N          0.05358000       0.08241870       0.08495100
    11  N          0.55358000       0.41758130       0.91504900
    12  N          0.94642000       0.58241870       0.41504900
    13  N          0.43692000       0.25085120       0.36133900
    14  N          0.06308000       0.74914880       0.86133900
    15  N          0.56308000       0.75085120       0.13866100
    16  N          0.93692000       0.24914880       0.63866100
    17  N          0.46542000       0.23526120       0.49891100
    18  N          0.03458000       0.76473880      -0.00108900
    19  N          0.53458000       0.73526120       0.00108900
    20  N          0.96542000       0.26473880       0.50108900
    21  C          0.46143000       0.29571140       0.56624120
    22  C          0.03857000       0.70428860       0.06624120
    23  C          0.53857000       0.79571140       0.93375880
    24  C          0.96143000       0.20428860       0.43375880
    25  C          0.37363000       0.75179150       0.52617110
    26  C          0.12637000       0.24820850       0.02617110
    27  C          0.62637000       0.25179150       0.97382890
    28  C          0.87363000       0.74820850       0.47382890
    29  H          0.32829900       0.78477700       0.47959600
    30  H          0.17170100       0.21522300       0.97959600
    31  H          0.67170100       0.28477700       0.02040400
    32  H          0.82829900       0.71522300       0.52040400
    33  C          0.44953000       0.48160140       0.60428120
    34  C          0.05047000       0.51839860       0.10428120
    35  C          0.55047000       0.98160140       0.89571880
    36  C          0.94953000       0.01839860       0.39571880
    37  H          0.47019500       0.45674000       0.65668200
    38  H          0.02980500       0.54326000       0.15668200
    39  H          0.52980500       0.95674000       0.84331800
    40  H          0.97019500       0.04326000       0.34331800
    41  C          0.43753000       0.28983140       0.43431120
    42  C          0.06247000       0.71016860       0.93431120
    43  C          0.56247000       0.78983140       0.06568880
    44  C          0.93753000       0.21016860       0.56568880
    45  C          0.37263000       0.64607150       0.53040120
    46  C          0.12737000       0.35392850       0.03040120
    47  C          0.62737000       0.14607150       0.96959880
    48  C          0.87263000       0.85392850       0.46959880
    49  H          0.32594700       0.60778700       0.48659500
    50  H          0.17405300       0.39221300       0.98659500
    51  H          0.67405300       0.10778700       0.01340500
    52  H          0.82594700       0.89221300       0.51340500
    53  C          0.50083000       0.75948150       0.65864120
    54  C         -0.00083000       0.24051850       0.15864120
    55  C          0.49917000       0.25948150       0.84135880
    56  C          0.00083000       0.74051850       0.34135880
    57  H          0.54283800       0.79758000       0.70340500
    58  H          0.95716200       0.20242000       0.20340500
    59  H          0.45716200       0.29758000       0.79659500
    60  H          0.04283800       0.70242000       0.29659500
    61  C          0.49933000       0.65360150       0.66164120
    62  C          0.00067000       0.34639850       0.16164120
    63  C          0.50067000       0.15360150       0.83835880
    64  C         -0.00067000       0.84639850       0.33835880
    65  H          0.54086700       0.62040500       0.70875500
    66  H          0.95913300       0.37959500       0.20875500
    67  H          0.45913300       0.12040500       0.79124500
    68  H          0.04086700       0.87959500       0.29124500
    69  C          0.43873000       0.59294140       0.59758110
    70  C          0.06127000       0.40705860       0.09758110
    71  C          0.56127000       0.09294140       0.90241890
    72  C          0.93873000       0.90705860       0.40241890
    73  C          0.44073000       0.81206150       0.58985120
    74  C          0.05927000       0.18793850       0.08985120
    75  C          0.55927000       0.31206150       0.91014880
    76  C          0.94073000       0.68793850       0.41014880
    77  C          0.38654000       0.96882150       0.51310120
    78  C          0.11346000       0.03117850       0.01310120
    79  C          0.61346000       0.46882150       0.98689880
    80  C          0.88654000       0.53117850       0.48689880
    81  H          0.45841200       0.94280300       0.46783100
    82  H          0.04158800       0.05719700       0.96783100
    83  H          0.54158800       0.44280300       0.03216900
    84  H          0.95841200       0.55719700       0.53216900
    85  H          0.40656900       0.04308500       0.51844500
    86  H          0.09343100       0.95691500       0.01844500
    87  H          0.59343100       0.54308500       0.98155500
    88  H          0.90656900       0.45691500       0.48155500
    89  H          0.25381200       0.95531700       0.50428700
    90  H          0.24618800       0.04468300       0.00428700
    91  H          0.74618800       0.45531700      -0.00428700
    92  H          0.75381200       0.54468300       0.49571300
    93  C          0.43503000       0.40835140       0.54860120
    94  C          0.06497000       0.59164860       0.04860120
    95  C          0.56497000       0.90835140       0.95139880
    96  C          0.93503000       0.09164860       0.45139880
    97  C          0.48243000       0.97934140       0.65521120
    98  C          0.01757000       0.02065860       0.15521120
    99  C          0.51757000       0.47934140       0.84478880
   100  C         -0.01757000       0.52065860       0.34478880
   101  H          0.38789800       0.96458400       0.69567900
   102  H          0.11210200       0.03541600       0.19567900
   103  H          0.61210200       0.46458400       0.80432100
   104  H          0.88789800       0.53541600       0.30432100
   105  H          0.47764800       0.05246400       0.64112100
   106  H          0.02235200       0.94753600       0.14112100
   107  H          0.52235200       0.55246400       0.85887900
   108  H          0.97764800       0.44753600       0.35887900
   109  H          0.60603000       0.96266700       0.67627000
   110  H          0.89397000       0.03733300       0.17627000
   111  H          0.39397000       0.46266700       0.82373000
   112  H          0.10603000       0.53733300       0.32373000
   113  C          0.57833000       0.11771150       0.27762120
   114  C          0.92167000       0.88228850       0.77762120
   115  C          0.42167000       0.61771150       0.22237880
   116  C          0.07833000       0.38228850       0.72237880
   117  H          0.58060100       0.04268000       0.26745900
   118  H          0.91939900       0.95732000       0.76745900
   119  H          0.41939900       0.54268000       0.23254100
   120  H          0.08060100       0.45732000       0.73254100
   121  H          0.70715700       0.13996700       0.28958700
   122  H          0.79284300       0.86003300       0.78958700
   123  H          0.29284300       0.63996700       0.21041300
   124  H          0.20715700       0.36003300       0.71041300
   125  C          0.49513000       0.28812150       0.21972120
   126  C          0.00487000       0.71187850       0.71972120
   127  C          0.50487000       0.78812150       0.28027880
   128  C         -0.00487000       0.21187850       0.78027880
   129  H          0.62104500       0.31657300       0.22919300
   130  H          0.87895500       0.68342700       0.72919300
   131  H          0.37895500       0.81657300       0.27080700
   132  H          0.12104500       0.18342700       0.77080700
   133  H          0.44194400       0.32320500       0.17263600
   134  H          0.05805600       0.67679500       0.67263600
   135  H          0.55805600       0.82320500       0.32736400
   136  H          0.94194400       0.17679500       0.82736400
   137  C          0.45543000       0.13938140       0.34901120
   138  C          0.04457000       0.86061860       0.84901120
   139  C          0.54457000       0.63938140       0.15098880
   140  C          0.95543000       0.36061860       0.65098880
   141  H          0.33076700       0.10876600       0.34034700
   142  H          0.16923300       0.89123400       0.84034700
   143  H          0.66923300       0.60876600       0.15965300
   144  H          0.83076700       0.39123400       0.65965300
   145  H          0.51027100       0.10737600       0.39702100
   146  H         -0.01027100       0.89262400       0.89702100
   147  H          0.48972900       0.60737600       0.10297900
   148  H          0.01027100       0.39262400       0.60297900
   149  C          0.51003000       0.17324150       0.20307120
   150  C         -0.01003000       0.82675850       0.70307120
   151  C          0.48997000       0.67324150       0.29692880
   152  C          0.01003000       0.32675850       0.79692880
   153  H          0.59803300       0.16120600       0.15872800
   154  H          0.90196700       0.83879400       0.65872800
   155  H          0.40196700       0.66120600       0.34127200
   156  H          0.09803300       0.33879400       0.84127200
   157  H          0.38670600       0.14592800       0.18728500
   158  H          0.11329400       0.85407200       0.68728500
   159  H          0.61329400       0.64592800       0.31271500
   160  H          0.88670600       0.35407200       0.81271500
   161  C          0.37313000       0.30913150       0.29169120
   162  C          0.12687000       0.69086850       0.79169120
   163  C          0.62687000       0.80913150       0.20830880
   164  C          0.87313000       0.19086850       0.70830880
   165  H          0.37566500       0.38361100       0.30401000
   166  H          0.12433500       0.61638900       0.80401000
   167  H          0.62433500       0.88361100       0.19599000
   168  H          0.87566500       0.11638900       0.69599000
   169  H          0.24292400       0.28985000       0.27930600
   170  H          0.25707600       0.71015000       0.77930600
   171  H          0.75707600       0.78985000       0.22069400
   172  H          0.74292400       0.21015000       0.72069400
