data_LEQZIS03
_symmetry_space_group_name_H-M    'P1'
_symmetry_Int_Tables_number       1
loop_
_symmetry_equiv_pos_site_id
_symmetry_equiv_pos_as_xyz
1 x,y,z
_cell_length_a                   13.96793
_cell_length_b                   16.21234
_cell_length_c                   7.51372
_cell_angle_alpha                90.0
_cell_angle_beta                 114.32801
_cell_angle_gamma                90.0
loop_
_atom_site_label
_atom_site_type_symbol
_atom_site_fract_x
_atom_site_fract_y
_atom_site_fract_z
     1  S          0.38293400       0.44934300       0.36145600
     2  S          0.38293400       0.55065700       0.86145600
     3  S          0.88293400       0.94934300       0.36145600
     4  S          0.88293400       0.05065700       0.86145600
     5  O          0.23021120       0.64917900       0.15952000
     6  O          0.23021120       0.35082100       0.65952000
     7  O          0.73021120       0.14917900       0.15952000
     8  O          0.73021120       0.85082100       0.65952000
     9  N          0.21745140       0.36684110       0.10713000
    10  N          0.21745140       0.63315890       0.60713000
    11  N          0.71745140       0.86684110       0.10713000
    12  N          0.71745140       0.13315890       0.60713000
    13  N          0.87257140       0.57390110       0.95313000
    14  N          0.87257140       0.42609890       0.45313000
    15  N          0.37257140       0.07390110       0.95313000
    16  N          0.37257140       0.92609890       0.45313000
    17  N          0.20116150       0.50997110       0.10723000
    18  N          0.20116150       0.49002890       0.60723000
    19  N          0.70116150       0.00997110       0.10723000
    20  N          0.70116150       0.99002890       0.60723000
    21  C          0.36958190       0.55692120       0.34564000
    22  C          0.36958190       0.44307880       0.84564000
    23  C          0.86958190       0.05692120       0.34564000
    24  C          0.86958190       0.94307880       0.84564000
    25  C          0.26085170       0.57767130       0.19693000
    26  C          0.26085170       0.42232870       0.69693000
    27  C          0.76085170       0.07767130       0.19693000
    28  C          0.76085170       0.92232870       0.69693000
    29  C          0.44355160       0.61325130       0.43553000
    30  C          0.44355160       0.38674870       0.93553000
    31  C          0.94355160       0.11325130       0.43553000
    32  C          0.94355160       0.88674870       0.93553000
    33  H          0.42272200       0.66892800       0.40202900
    34  H          0.42272200       0.33107200       0.90202900
    35  H          0.92272200       0.16892800       0.40202900
    36  H          0.92272200       0.83107200       0.90202900
    37  C          0.76745160       0.58374130       0.83463000
    38  C          0.76745160       0.41625870       0.33463000
    39  C          0.26745160       0.08374130       0.83463000
    40  C          0.26745160       0.91625870       0.33463000
    41  C          0.72910160       0.65743120       0.72973000
    42  C          0.72910160       0.34256880       0.22973000
    43  C          0.22910160       0.15743120       0.72973000
    44  C          0.22910160       0.84256880       0.22973000
    45  H          0.77601800       0.70186300       0.74373100
    46  H          0.77601800       0.29813700       0.24373100
    47  H          0.27601800       0.20186300       0.74373100
    48  H          0.27601800       0.79813700       0.24373100
    49  C          0.25449160       0.44094130       0.17373000
    50  C          0.25449160       0.55905870       0.67373000
    51  C          0.75449160       0.94094130       0.17373000
    52  C          0.75449160       0.05905870       0.67373000
    53  C          0.69367170       0.52066130       0.81393000
    54  C          0.69367170       0.47933870       0.31393000
    55  C          0.19367170       0.02066130       0.81393000
    56  C          0.19367170       0.97933870       0.31393000
    57  H          0.71618600       0.47135400       0.88786000
    58  H          0.71618600       0.52864600       0.38786000
    59  H          0.21618600       0.97135400       0.88786000
    60  H          0.21618600       0.02864600       0.38786000
    61  C          0.62414160       0.66570130       0.60673000
    62  C          0.62414160       0.33429870       0.10673000
    63  C          0.12414160       0.16570130       0.60673000
    64  C          0.12414160       0.83429870       0.10673000
    65  H          0.60030400       0.71643800       0.53977300
    66  H          0.60030400       0.28356200       0.03977300
    67  H          0.10030400       0.21643800       0.53977300
    68  H          0.10030400       0.78356200       0.03977300
    69  C          0.55135170       0.60178130       0.57723000
    70  C          0.55135170       0.39821870       0.07723000
    71  C          0.05135170       0.10178130       0.57723000
    72  C          0.05135170       0.89821870       0.07723000
    73  C          0.58980170       0.52978130       0.68833000
    74  C          0.58980170       0.47021870       0.18833000
    75  C          0.08980170       0.02978130       0.68833000
    76  C          0.08980170       0.97021870       0.18833000
    77  H          0.54235400       0.48594400       0.67607300
    78  H          0.54235400       0.51405600       0.17607300
    79  H          0.04235400       0.98594400       0.67607300
    80  H          0.04235400       0.01405600       0.17607300
    81  C          0.91196190       0.49415140       0.04054000
    82  C          0.91196190       0.50584860       0.54054000
    83  C          0.41196190      -0.00584860       0.04054000
    84  C          0.41196190       0.00584860       0.54054000
    85  H          0.87629600       0.47758900       0.12308000
    86  H          0.87629600       0.52241100       0.62308000
    87  H          0.37629600       0.97758900       0.12308000
    88  H          0.37629600       0.02241100       0.62308000
    89  H         -0.01225500       0.49792700       0.12012200
    90  H         -0.01225500       0.50207300       0.62012200
    91  H          0.48774500      -0.00207300       0.12012200
    92  H          0.48774500       0.00207300       0.62012200
    93  H          0.89844800       0.45309900       0.93715700
    94  H          0.89844800       0.54690100       0.43715700
    95  H          0.39844800       0.95309900       0.93715700
    96  H          0.39844800       0.04690100       0.43715700
    97  C          0.94754170       0.63590140       0.95283000
    98  C          0.94754170       0.36409860       0.45283000
    99  C          0.44754170       0.13590140       0.95283000
   100  C          0.44754170       0.86409860       0.45283000
   101  H          0.93143500       0.65253200       0.81807300
   102  H          0.93143500       0.34746800       0.31807300
   103  H          0.43143500       0.15253200       0.81807300
   104  H          0.43143500       0.84746800       0.31807300
   105  H          0.01871800       0.61296200       0.01225500
   106  H          0.01871800       0.38703800       0.51225500
   107  H          0.51871800       0.11296200       0.01225500
   108  H          0.51871800       0.88703800       0.51225500
   109  H          0.94305800       0.68405700       0.02784700
   110  H          0.94305800       0.31594300       0.52784700
   111  H          0.44305800       0.18405700       0.02784700
   112  H          0.44305800       0.81594300       0.52784700
   113  C          0.05249190       0.29674150       0.04794000
   114  C          0.05249190       0.70325850       0.54794000
   115  C          0.55249190       0.79674150       0.04794000
   116  C          0.55249190       0.20325850       0.54794000
   117  H          0.98033100       0.28628900       0.94886100
   118  H          0.98033100       0.71371100       0.44886100
   119  H          0.48033100       0.78628900       0.94886100
   120  H          0.48033100       0.21371100       0.44886100
   121  H          0.04727300       0.32350200       0.16196100
   122  H          0.04727300       0.67649800       0.66196100
   123  H          0.54727300       0.82350200       0.16196100
   124  H          0.54727300       0.17649800       0.66196100
   125  C          0.10932160       0.35397140       0.96267000
   126  C          0.10932160       0.64602860       0.46267000
   127  C          0.60932160       0.85397140       0.96267000
   128  C          0.60932160       0.14602860       0.46267000
   129  H          0.10994400       0.32931400       0.84259600
   130  H          0.10994400       0.67068600       0.34259600
   131  H          0.60994400       0.82931400       0.84259600
   132  H          0.60994400       0.17068600       0.34259600
   133  H          0.07217200       0.40753700       0.92774000
   134  H          0.07217200       0.59246300       0.42774000
   135  H          0.57217200       0.90753700       0.92774000
   136  H          0.57217200       0.09246300       0.42774000
   137  C          0.27825170       0.29082130       0.16793000
   138  C          0.27825170       0.70917870       0.66793000
   139  C          0.77825170       0.79082130       0.16793000
   140  C          0.77825170       0.20917870       0.66793000
   141  H          0.34963400       0.30362900       0.26695700
   142  H          0.34963400       0.69637100       0.76695700
   143  H          0.84963400       0.80362900       0.26695700
   144  H          0.84963400       0.19637100       0.76695700
   145  H          0.28520000       0.26531400       0.05404900
   146  H          0.28520000       0.73468600       0.55404900
   147  H          0.78520000       0.76531400       0.05404900
   148  H          0.78520000       0.23468600       0.55404900
   149  C          0.11123190       0.21478140       0.11094000
   150  C          0.11123190       0.78521860       0.61094000
   151  C          0.61123190       0.71478140       0.11094000
   152  C          0.61123190       0.28521860       0.61094000
   153  H          0.07602500       0.17984300       0.17400300
   154  H          0.07602500       0.82015700       0.67400300
   155  H          0.57602500       0.67984300       0.17400300
   156  H          0.57602500       0.32015700       0.67400300
   157  H          0.10986600       0.18510500      -0.00531900
   158  H          0.10986600       0.81489500       0.49468100
   159  H          0.60986600       0.68510500      -0.00531900
   160  H          0.60986600       0.31489500       0.49468100
   161  C          0.22482000       0.23030140       0.25344000
   162  C          0.22482000       0.76969860       0.75344000
   163  C          0.72482000       0.73030140       0.25344000
   164  C          0.72482000       0.26969860       0.75344000
   165  H          0.26378000       0.17747500       0.28332800
   166  H          0.26378000       0.82252500       0.78332800
   167  H          0.76378000       0.67747500       0.28332800
   168  H          0.76378000       0.32252500       0.78332800
   169  H          0.22619700       0.25285300       0.37688200
   170  H          0.22619700       0.74714700       0.87688200
   171  H          0.72619700       0.75285300       0.37688200
   172  H          0.72619700       0.24714700       0.87688200
