data_LEQZIS
_symmetry_space_group_name_H-M    'P1'
_symmetry_Int_Tables_number       1
loop_
_symmetry_equiv_pos_site_id
_symmetry_equiv_pos_as_xyz
1 x,y,z
_cell_length_a                   12.712514
_cell_length_b                   7.82464
_cell_length_c                   16.5792
_cell_angle_alpha                90.0
_cell_angle_beta                 106.9049
_cell_angle_gamma                90.0
loop_
_atom_site_label
_atom_site_type_symbol
_atom_site_fract_x
_atom_site_fract_y
_atom_site_fract_z
     1  S          0.57880500       0.35790800       0.60139400
     2  S          0.92119500       0.85790800       0.89860600
     3  S          0.42119500       0.64209200       0.39860600
     4  S          0.07880500       0.14209200       0.10139400
     5  C          0.71832000       0.30123000       0.61626150
     6  C          0.78168000       0.80123000       0.88373850
     7  C          0.28168000       0.69877000       0.38373850
     8  C          0.21832000       0.19877000       0.11626150
     9  N          0.79382170       0.41673000       0.64922130
    10  N          0.70617830       0.91673000       0.85077870
    11  N          0.20617830       0.58327000       0.35077870
    12  N          0.29382170       0.08327000       0.14922130
    13  C          0.74712000       0.56463000       0.66841160
    14  C          0.75288000       0.06463000       0.83158840
    15  C          0.25288000       0.43537000       0.33158840
    16  C          0.24712000       0.93537000       0.16841160
    17  O          0.80069150       0.69172000       0.69924120
    18  O          0.69930850       0.19172000       0.80075880
    19  O          0.19930850       0.30828000       0.30075880
    20  O          0.30069150       0.80828000       0.19924120
    21  C          0.62442000       0.55473000       0.64865150
    22  C          0.87558000       0.05473000       0.85134850
    23  C          0.37558000       0.44527000       0.35134850
    24  C          0.12442000       0.94527000       0.14865150
    25  N          0.74172170       0.14463000       0.59428140
    26  N          0.75827830       0.64463000       0.90571860
    27  N          0.25827830       0.85537000       0.40571860
    28  N          0.24172170       0.35537000       0.09428140
    29  C          0.65872000       0.01473000       0.55802180
    30  C          0.84128000       0.51473000       0.94197820
    31  C          0.34128000      -0.01473000       0.44197820
    32  C          0.15872000       0.48527000       0.05802180
    33  H          0.58450000       0.06600000       0.54530000
    34  H          0.91550000       0.56600000       0.95470000
    35  H          0.41550000       0.93400000       0.45470000
    36  H          0.08450000       0.43400000       0.04530000
    37  H          0.66370000       0.92150000       0.59940000
    38  H          0.83630000       0.42150000       0.90060000
    39  H          0.33630000       0.07850000       0.40060000
    40  H          0.16370000       0.57850000       0.09940000
    41  C          0.67562000       0.94216000       0.47794180
    42  C          0.82438000       0.44216000       0.02205820
    43  C          0.32438000       0.05784000       0.52205820
    44  C          0.17562000       0.55784000       0.97794180
    45  H          0.66240000       0.03280000       0.43450000
    46  H          0.83760000       0.53280000       0.06550000
    47  H          0.33760000       0.96720000       0.56550000
    48  H          0.16240000       0.46720000       0.93450000
    49  H          0.62180000       0.84930000       0.45630000
    50  H          0.87820000       0.34930000       0.04370000
    51  H          0.37820000       0.15070000       0.54370000
    52  H          0.12180000       0.65070000       0.95630000
    53  C          0.79222000       0.87236000       0.49418180
    54  C          0.70778000       0.37236000       0.00581820
    55  C          0.20778000       0.12764000       0.50581820
    56  C          0.29222000       0.62764000      -0.00581820
    57  H          0.80240000       0.77230000       0.53220000
    58  H          0.69760000       0.27230000       0.96780000
    59  H          0.19760000       0.22770000       0.46780000
    60  H          0.30240000       0.72770000       0.03220000
    61  H          0.80350000       0.83460000       0.44030000
    62  H          0.69650000       0.33460000       0.05970000
    63  H          0.19650000       0.16540000       0.55970000
    64  H          0.30350000       0.66540000       0.94030000
    65  C          0.87612000       0.00944000       0.53403170
    66  C          0.62388000       0.50944000       0.96596830
    67  C          0.12388000      -0.00944000       0.46596830
    68  C          0.37612000       0.49056000       0.03403170
    69  H          0.87260000       0.10180000       0.49260000
    70  H          0.62740000       0.60180000       0.00740000
    71  H          0.12740000       0.89820000       0.50740000
    72  H          0.37260000       0.39820000      -0.00740000
    73  H          0.95080000       0.95920000       0.54890000
    74  H          0.54920000       0.45920000       0.95110000
    75  H          0.04920000       0.04080000       0.45110000
    76  H          0.45080000       0.54080000       0.04890000
    77  C          0.85572000       0.08454000       0.61281170
    78  C          0.64428000       0.58454000       0.88718830
    79  C          0.14428000       0.91546000       0.38718830
    80  C          0.35572000       0.41546000       0.11281170
    81  H          0.87010000      -0.00340000       0.65760000
    82  H          0.62990000       0.49660000       0.84240000
    83  H          0.12990000       0.00340000       0.34240000
    84  H          0.37010000       0.50340000       0.15760000
    85  H          0.90670000       0.18110000       0.63350000
    86  H          0.59330000       0.68110000       0.86650000
    87  H          0.09330000       0.81890000       0.36650000
    88  H          0.40670000       0.31890000       0.13350000
    89  C          0.56482000       0.67633000       0.67246160
    90  C          0.93518000       0.17633000       0.82753840
    91  C          0.43518000       0.32367000       0.32753840
    92  C          0.06482000       0.82367000       0.17246160
    93  H          0.60560000       0.77300000       0.69900000
    94  H          0.89440000       0.27300000       0.80100000
    95  H          0.39440000       0.22700000       0.30100000
    96  H          0.10560000       0.72700000       0.19900000
    97  C          0.44782000       0.68303000       0.66400160
    98  C          0.05218000       0.18303000       0.83599840
    99  C          0.55218000       0.31697000       0.33599840
   100  C          0.94782000       0.81697000       0.16400160
   101  C          0.41112000       0.79023000       0.71806160
   102  C          0.08888000       0.29023000       0.78193840
   103  C          0.58888000       0.20977000       0.28193840
   104  C          0.91112000       0.70977000       0.21806160
   105  H          0.46270000       0.86280000       0.75560000
   106  H          0.03730000       0.36280000       0.74440000
   107  H          0.53730000       0.13720000       0.24440000
   108  H          0.96270000       0.63720000       0.25560000
   109  C          0.30302000       0.79413000       0.71881160
   110  C          0.19698000       0.29413000       0.78118840
   111  C          0.69698000       0.20587000       0.28118840
   112  C          0.80302000       0.70587000       0.21881160
   113  H          0.28210000       0.86630000       0.75760000
   114  H          0.21790000       0.36630000       0.74240000
   115  H          0.71790000       0.13370000       0.24240000
   116  H          0.78210000       0.63370000       0.25760000
   117  C          0.22312000       0.69203000       0.66267160
   118  C          0.27688000       0.19203000       0.83732840
   119  C          0.77688000       0.30797000       0.33732840
   120  C          0.72312000       0.80797000       0.16267160
   121  C          0.25762000       0.59213000       0.60410150
   122  C          0.24238000       0.09213000       0.89589850
   123  C          0.74238000       0.40787000       0.39589850
   124  C          0.75762000       0.90787000       0.10410150
   125  H          0.20500000       0.52820000       0.56270000
   126  H          0.29500000       0.02820000       0.93730000
   127  H          0.79500000       0.47180000       0.43730000
   128  H          0.70500000       0.97180000       0.06270000
   129  C          0.36772000       0.58653000       0.60647160
   130  C          0.13228000       0.08653000       0.89352840
   131  C          0.63228000       0.41347000       0.39352840
   132  C          0.86772000       0.91347000       0.10647160
   133  H          0.38910000       0.51480000       0.56780000
   134  H          0.11090000       0.01480000       0.93220000
   135  H          0.61090000       0.48520000       0.43220000
   136  H          0.88910000      -0.01480000       0.06780000
   137  N          0.11585170       0.69043000       0.66440130
   138  N          0.38414830       0.19043000       0.83559870
   139  N          0.88414830       0.30957000       0.33559870
   140  N          0.61585170       0.80957000       0.16440130
   141  C          0.08402000       0.78134000       0.73049170
   142  C          0.41598000       0.28134000       0.76950830
   143  C          0.91598000       0.21866000       0.26950830
   144  C          0.58402000       0.71866000       0.23049170
   145  H          0.13210000       0.74690000       0.78570000
   146  H          0.36790000       0.24690000       0.71430000
   147  H          0.86790000       0.25310000       0.21430000
   148  H          0.63210000       0.75310000       0.28570000
   149  H          0.00760000       0.75350000       0.72690000
   150  H          0.49240000       0.25350000       0.77310000
   151  H         -0.00760000       0.24650000       0.27310000
   152  H          0.50760000       0.74650000       0.22690000
   153  H          0.09080000       0.90470000       0.72320000
   154  H          0.40920000       0.40470000       0.77680000
   155  H          0.90920000       0.09530000       0.27680000
   156  H          0.59080000       0.59530000       0.22320000
   157  C          0.03422000       0.58763000       0.60426160
   158  C          0.46578000       0.08763000       0.89573840
   159  C          0.96578000       0.41237000       0.39573840
   160  C          0.53422000       0.91237000       0.10426160
   161  H          0.02460000       0.63120000       0.54720000
   162  H          0.47540000       0.13120000       0.95280000
   163  H          0.97540000       0.36880000       0.45280000
   164  H          0.52460000       0.86880000       0.04720000
   165  H          0.96400000       0.59390000       0.61750000
   166  H          0.53600000       0.09390000       0.88250000
   167  H          0.03600000       0.40610000       0.38250000
   168  H          0.46400000       0.90610000       0.11750000
   169  H          0.05900000       0.46850000       0.60760000
   170  H          0.44100000       0.96850000       0.89240000
   171  H          0.94100000       0.53150000       0.39240000
   172  H          0.55900000       0.03150000       0.10760000
