data_LETGIA12
_symmetry_space_group_name_H-M    'P1'
_symmetry_Int_Tables_number       1
loop_
_symmetry_equiv_pos_site_id
_symmetry_equiv_pos_as_xyz
1 x,y,z
_cell_length_a                   12.6943
_cell_length_b                   7.282919
_cell_length_c                   7.255518
_cell_angle_alpha                90.0
_cell_angle_beta                 120.8289
_cell_angle_gamma                90.0
loop_
_atom_site_label
_atom_site_type_symbol
_atom_site_fract_x
_atom_site_fract_y
_atom_site_fract_z
     1  C          0.17155000       0.50188400       0.76981000
     2  C          0.82845000       0.50188400       0.23019000
     3  C          0.67155000       0.00188400       0.76981000
     4  C          0.32845000       0.00188400       0.23019000
     5  N          0.12492000       0.35109000       0.77268300
     6  N          0.87508000       0.35109000       0.22731700
     7  N          0.62492000       0.85109000       0.77268300
     8  N          0.37508000       0.85109000       0.22731700
     9  H          0.16373800       0.25056500       0.78557000
    10  H          0.83626200       0.25056500       0.21443000
    11  H          0.66373800       0.75056500       0.78557000
    12  H          0.33626200       0.75056500       0.21443000
    13  H          0.05431600       0.34819000       0.76177500
    14  H          0.94568400       0.34819000       0.23822500
    15  H          0.55431600       0.84819000       0.76177500
    16  H          0.44568400       0.84819000       0.23822500
    17  N          0.11861000       0.65271000       0.76368300
    18  N          0.88139000       0.65271000       0.23631700
    19  N          0.61861000       0.15271000       0.76368300
    20  N          0.38139000       0.15271000       0.23631700
    21  H          0.05025600       0.65164300       0.76134600
    22  H          0.94974400       0.65164300       0.23865400
    23  H          0.55025600       0.15164300       0.76134600
    24  H          0.44974400       0.15164300       0.23865400
    25  H          0.15142000       0.75565400       0.76177500
    26  H          0.84858000       0.75565400       0.23822500
    27  H          0.65142000       0.25565400       0.76177500
    28  H          0.34858000       0.25565400       0.23822500
    29  N          0.27645000       0.49458400       0.78689000
    30  N          0.72355000       0.49458400       0.21311000
    31  N          0.77645000      -0.00541600       0.78689000
    32  N          0.22355000      -0.00541600       0.21311000
    33  H          0.31119600       0.39009200       0.79938600
    34  H          0.68880400       0.39009200       0.20061400
    35  H          0.81119600       0.89009200       0.79938600
    36  H          0.18880400       0.89009200       0.20061400
    37  H          0.31271300       0.59407200       0.78589200
    38  H          0.68728700       0.59407200       0.21410800
    39  H          0.81271300       0.09407200       0.78589200
    40  H          0.18728700       0.09407200       0.21410800
    41  N          0.17434000       0.50448300       0.27541000
    42  N          0.82566000       0.50448300       0.72459000
    43  N          0.67434000       0.00448300       0.27541000
    44  N          0.32566000       0.00448300       0.72459000
    45  O          0.12302000       0.34601000       0.27061600
    46  O          0.87698000       0.34601000       0.72938400
    47  O          0.62302000       0.84601000       0.27061600
    48  O          0.37698000       0.84601000       0.72938400
    49  O          0.11741000       0.65279000       0.26111700
    50  O          0.88259000       0.65279000       0.73888300
    51  O          0.61741000       0.15279000       0.26111700
    52  O          0.38259000       0.15279000       0.73888300
    53  O          0.27815000       0.49298500       0.28751000
    54  O          0.72185000       0.49298500       0.71249000
    55  O          0.77815000      -0.00701500       0.28751000
    56  O          0.22185000      -0.00701500       0.71249000
