data_LETGIA04
_symmetry_space_group_name_H-M    'P1'
_symmetry_Int_Tables_number       1
loop_
_symmetry_equiv_pos_site_id
_symmetry_equiv_pos_as_xyz
1 x,y,z
_cell_length_a                   12.61633
_cell_length_b                   7.2835
_cell_length_c                   7.5922
_cell_angle_alpha                90.0
_cell_angle_beta                 123.8829
_cell_angle_gamma                90.0
loop_
_atom_site_label
_atom_site_type_symbol
_atom_site_fract_x
_atom_site_fract_y
_atom_site_fract_z
     1  C          0.91220000       0.00000000       0.23430000
     2  C          0.08780000       0.00000000       0.76570000
     3  C          0.41220000       0.50000000       0.23430000
     4  C          0.58780000       0.50000000       0.76570000
     5  N          0.01230000       0.00000000       0.23860000
     6  N         -0.01230000       0.00000000       0.76140000
     7  N          0.51230000       0.50000000       0.23860000
     8  N          0.48770000       0.50000000       0.76140000
     9  N          0.86120000       0.14910000       0.23040000
    10  N          0.13880000       0.14910000       0.76960000
    11  N          0.36120000       0.64910000       0.23040000
    12  N          0.63880000       0.64910000       0.76960000
    13  N          0.13880000       0.85090000       0.76960000
    14  N          0.86120000       0.85090000       0.23040000
    15  N          0.63880000       0.35090000       0.76960000
    16  N          0.36120000       0.35090000       0.23040000
    17  H          0.03800000       0.11930000       0.22870000
    18  H          0.96200000       0.11930000       0.77130000
    19  H          0.53800000       0.61930000       0.22870000
    20  H          0.46200000       0.61930000       0.77130000
    21  H          0.96200000       0.88070000       0.77130000
    22  H          0.03800000       0.88070000       0.22870000
    23  H          0.46200000       0.38070000       0.77130000
    24  H          0.53800000       0.38070000       0.22870000
    25  H          0.77390000       0.15920000       0.23770000
    26  H          0.22610000       0.15920000       0.76230000
    27  H          0.27390000       0.65920000       0.23770000
    28  H          0.72610000       0.65920000       0.76230000
    29  H          0.22610000       0.84080000       0.76230000
    30  H          0.77390000       0.84080000       0.23770000
    31  H          0.72610000       0.34080000       0.76230000
    32  H          0.27390000       0.34080000       0.23770000
    33  H          0.88500000       0.28110000       0.22920000
    34  H          0.11500000       0.28110000       0.77080000
    35  H          0.38500000       0.78110000       0.22920000
    36  H          0.61500000       0.78110000       0.77080000
    37  H          0.11500000       0.71890000       0.77080000
    38  H          0.88500000       0.71890000       0.22920000
    39  H          0.61500000       0.21890000       0.77080000
    40  H          0.38500000       0.21890000       0.22920000
    41  N          0.56820000       0.00000000       0.25430000
    42  N          0.43180000       0.00000000       0.74570000
    43  N          0.06820000       0.50000000       0.25430000
    44  N          0.93180000       0.50000000       0.74570000
    45  O          0.46530000       0.00000000       0.24190000
    46  O          0.53470000       0.00000000       0.75810000
    47  O          0.96530000       0.50000000       0.24190000
    48  O          0.03470000       0.50000000       0.75810000
    49  O          0.61920000       0.14910000       0.25730000
    50  O          0.38080000       0.14910000       0.74270000
    51  O          0.11920000       0.64910000       0.25730000
    52  O          0.88080000       0.64910000       0.74270000
    53  O          0.38080000       0.85090000       0.74270000
    54  O          0.61920000       0.85090000       0.25730000
    55  O          0.88080000       0.35090000       0.74270000
    56  O          0.11920000       0.35090000       0.25730000
