data_LETGIA08
_symmetry_space_group_name_H-M    'P1'
_symmetry_Int_Tables_number       1
loop_
_symmetry_equiv_pos_site_id
_symmetry_equiv_pos_as_xyz
1 x,y,z
_cell_length_a                   4.89901
_cell_length_b                   4.91701
_cell_length_c                   10.3502
_cell_angle_alpha                90.0
_cell_angle_beta                 100.803
_cell_angle_gamma                90.0
loop_
_atom_site_label
_atom_site_type_symbol
_atom_site_fract_x
_atom_site_fract_y
_atom_site_fract_z
     1  C          0.79060000       0.10691300       0.04820000
     2  C          0.79060000       0.89308700       0.54820000
     3  N          0.67480000       0.32441000       0.00591300
     4  N          0.67480000       0.67559000       0.50591300
     5  H          0.73490000       0.41490000       0.94590000
     6  H          0.73490000       0.58510000       0.44590000
     7  H          0.53440000       0.38310000       0.03670000
     8  H          0.53440000       0.61690000       0.53670000
     9  N          0.73770000      -0.00261200       0.14971500
    10  N          0.73770000       0.00261200       0.64971500
    11  H          0.83690000       0.86310000       0.18530000
    12  H          0.83690000       0.13690000       0.68530000
    13  H          0.60200000       0.05620000       0.18380000
    14  H          0.60200000       0.94380000       0.68380000
    15  N         -0.00830000      -0.00961200       0.01751800
    16  N         -0.00830000       0.00961200       0.51751800
    17  H          0.06980000       0.85690000       0.06410000
    18  H          0.06980000       0.14310000       0.56410000
    19  H          0.05470000       0.04260000       0.94920000
    20  H          0.05470000       0.95740000       0.44920000
    21  N          0.23430000       0.44198600       0.26561600
    22  N          0.23430000       0.55801400       0.76561600
    23  O          0.02630000       0.55198900       0.32201400
    24  O          0.02630000       0.44801100       0.82201400
    25  O          0.27630000       0.53378900       0.17791300
    26  O          0.27630000       0.46621100       0.67791300
    27  O          0.36130000       0.24342000       0.32741300
    28  O          0.36130000       0.75658000       0.82741300
