data_LETGIA03
_symmetry_space_group_name_H-M    'P1'
_symmetry_Int_Tables_number       1
loop_
_symmetry_equiv_pos_site_id
_symmetry_equiv_pos_as_xyz
1 x,y,z
_cell_length_a                   12.5455
_cell_length_b                   7.3034
_cell_length_c                   7.4764
_cell_angle_alpha                90.0
_cell_angle_beta                 124.935
_cell_angle_gamma                90.0
loop_
_atom_site_label
_atom_site_type_symbol
_atom_site_fract_x
_atom_site_fract_y
_atom_site_fract_z
     1  C          0.88688000       0.97967900       0.22791300
     2  C          0.11312000       0.97967900       0.77208700
     3  C          0.38688000       0.47967900       0.22791300
     4  C          0.61312000       0.47967900       0.77208700
     5  N          0.97667000      -0.00181400       0.20221200
     6  N          0.02333000      -0.00181400       0.79778800
     7  N          0.47667000       0.49818600       0.20221200
     8  N          0.52333000       0.49818600       0.79778800
     9  N          0.84509000       0.13311300       0.24541700
    10  N          0.15491000       0.13311300       0.75458300
    11  N          0.34509000       0.63311300       0.24541700
    12  N          0.65491000       0.63311300       0.75458300
    13  N          0.84251100       0.83088600       0.25032300
    14  N          0.15748900       0.83088600       0.74967700
    15  N          0.34251100       0.33088600       0.25032300
    16  N          0.65748900       0.33088600       0.74967700
    17  H          0.01070000       0.85287000       0.24012000
    18  H         -0.01070000       0.85287000       0.75988000
    19  H          0.51070000       0.35287000       0.24012000
    20  H          0.48930000       0.35287000       0.75988000
    21  H          0.05870000       0.09610000       0.22912000
    22  H          0.94130000       0.09610000       0.77088000
    23  H          0.55870000       0.59610000       0.22912000
    24  H          0.44130000       0.59610000       0.77088000
    25  H          0.72780000       0.19214000       0.20013000
    26  H          0.27220000       0.19214000       0.79987000
    27  H          0.22780000       0.69214000       0.20013000
    28  H          0.77220000       0.69214000       0.79987000
    29  H          0.93890000       0.26415000       0.30014000
    30  H          0.06110000       0.26415000       0.69986000
    31  H          0.43890000       0.76415000       0.30014000
    32  H          0.56110000       0.76415000       0.69986000
    33  H          0.77680000       0.84388000       0.27813000
    34  H          0.22320000       0.84388000       0.72187000
    35  H          0.27680000       0.34388000       0.27813000
    36  H          0.72320000       0.34388000       0.72187000
    37  H          0.84890000       0.69387000       0.23013000
    38  H          0.15110000       0.69387000       0.76987000
    39  H          0.34890000       0.19387000       0.23013000
    40  H          0.65110000       0.19387000       0.76987000
    41  N          0.56561200      -0.01882700       0.26611400
    42  N          0.43438800      -0.01882700       0.73388600
    43  N          0.06561200       0.48117300       0.26611400
    44  N          0.93438800       0.48117300       0.73388600
    45  O          0.45128000      -0.00082400       0.23611200
    46  O          0.54872000      -0.00082400       0.76388800
    47  O          0.95128000       0.49917600       0.23611200
    48  O          0.04872000       0.49917600       0.76388800
    49  O          0.62059000       0.13931700       0.27832300
    50  O          0.37941000       0.13931700       0.72167700
    51  O          0.12059000       0.63931700       0.27832300
    52  O          0.87941000       0.63931700       0.72167700
    53  O          0.62571800       0.83248400       0.27382600
    54  O          0.37428200       0.83248400       0.72617400
    55  O          0.12571800       0.33248400       0.27382600
    56  O          0.87428200       0.33248400       0.72617400
