data_LHISTD25
_symmetry_space_group_name_H-M    'P1'
_symmetry_Int_Tables_number       1
loop_
_symmetry_equiv_pos_site_id
_symmetry_equiv_pos_as_xyz
1 x,y,z
_cell_length_a                   4.87975
_cell_length_b                   6.63677
_cell_length_c                   18.25116
_cell_angle_alpha                90.0
_cell_angle_beta                 90.0
_cell_angle_gamma                90.0
loop_
_atom_site_label
_atom_site_type_symbol
_atom_site_fract_x
_atom_site_fract_y
_atom_site_fract_z
     1  O          0.34198000       0.45746000       0.23936000
     2  O          0.15802000       0.54254000       0.73936000
     3  O          0.65802000       0.95746000       0.26064000
     4  O          0.84198000       0.04254000       0.76064000
     5  O          0.76278000       0.40906000       0.19576000
     6  O          0.73722000       0.59094000       0.69576000
     7  O          0.23722000       0.90906000       0.30424000
     8  O          0.26278000       0.09094000       0.80424000
     9  N          0.95559000       0.26498000       0.31918000
    10  N          0.54441000       0.73502000       0.81918000
    11  N          0.04441000       0.76498000       0.18082000
    12  N          0.45559000       0.23502000       0.68082000
    13  H          0.06064100       0.31831200       0.28433400
    14  H          0.43935900       0.68168800       0.78433400
    15  H          0.93935900       0.81831200       0.21566600
    16  H          0.56064100       0.18168800       0.71566600
    17  H          0.92200000       0.13634000       0.30859400
    18  H          0.57800000       0.86366000       0.80859400
    19  H          0.07800000       0.63634000       0.19140600
    20  H          0.42200000       0.36366000       0.69140600
    21  H          0.04127100       0.27289100       0.36206200
    22  H          0.45872900       0.72710900       0.86206200
    23  H          0.95872900       0.77289100       0.13793800
    24  H          0.54127100       0.22710900       0.63793800
    25  N          0.92031000       0.51567000       0.55757000
    26  N          0.57969000       0.48433000       0.05757000
    27  N          0.07969000       0.01567000       0.94243000
    28  N          0.42031000      -0.01567000       0.44243000
    29  H          0.90502700       0.52678900       0.60423000
    30  H          0.59497300       0.47321100       0.10423000
    31  H          0.09497300       0.02678900       0.89577000
    32  H          0.40502700       0.97321100       0.39577000
    33  N          0.09569000       0.43968000       0.44949000
    34  N          0.40431000       0.56032000       0.94949000
    35  N          0.90431000       0.93968000       0.05051000
    36  N          0.59569000       0.06032000       0.55051000
    37  C          0.84291200       0.53669000       0.44088000
    38  C          0.65708800       0.46331000       0.94088000
    39  C          0.15708800       0.03669000       0.05912000
    40  C          0.34291200       0.96331000       0.55912000
    41  C          0.59121200       0.41389000       0.24597000
    42  C          0.90878800       0.58611000       0.74597000
    43  C          0.40878800       0.91389000       0.25403000
    44  C          0.09121200       0.08611000       0.75403000
    45  C          0.69251000       0.37739000       0.32318000
    46  C          0.80749000       0.62261000       0.82318000
    47  C          0.30749000       0.87739000       0.17682000
    48  C          0.19251000       0.12261000       0.67682000
    49  H          0.55775000       0.29404700       0.34899900
    50  H          0.94225000       0.70595300       0.84899900
    51  H          0.44225000       0.79404700       0.15100100
    52  H          0.05775000       0.20595300       0.65100100
    53  C          0.73781200       0.58289000       0.50808000
    54  C          0.76218800       0.41711000       0.00808000
    55  C          0.26218800       0.08289000       0.99192000
    56  C          0.23781200       0.91711000       0.49192000
    57  H          0.57284100       0.64786300       0.51762600
    58  H          0.92715900       0.35213700       0.01762600
    59  H          0.42715900       0.14786300       0.98237400
    60  H          0.07284100       0.85213700       0.48237400
    61  C          0.12551300       0.43039000       0.52289000
    62  C          0.37448700       0.56961000       0.02289000
    63  C          0.87448700       0.93039000       0.97711000
    64  C          0.62551300       0.06961000       0.47711000
    65  H          0.27397600       0.37031800       0.54619100
    66  H          0.22602400       0.62968200       0.04619100
    67  H          0.72602400       0.87031800       0.95380900
    68  H          0.77397600       0.12968200       0.45380900
    69  C          0.73181300       0.57141000       0.36537000
    70  C          0.76818700       0.42859000       0.86537000
    71  C          0.26818700       0.07141000       0.13463000
    72  C          0.23181300       0.92859000       0.63463000
    73  H          0.85686500       0.65786300       0.33849800
    74  H          0.64313500       0.34213700       0.83849800
    75  H          0.14313500       0.15786300       0.16150200
    76  H          0.35686500       0.84213700       0.66150200
    77  H          0.55733600       0.64065700       0.36895700
    78  H          0.94266400       0.35934300       0.86895700
    79  H          0.44266400       0.14065700       0.13104300
    80  H          0.05733600       0.85934300       0.63104300
