data_LHISTD41
_symmetry_space_group_name_H-M    'P1'
_symmetry_Int_Tables_number       1
loop_
_symmetry_equiv_pos_site_id
_symmetry_equiv_pos_as_xyz
1 x,y,z
_cell_length_a                   4.88078
_cell_length_b                   6.791611
_cell_length_c                   9.1923
_cell_angle_alpha                90.0
_cell_angle_beta                 103.382
_cell_angle_gamma                90.0
loop_
_atom_site_label
_atom_site_type_symbol
_atom_site_fract_x
_atom_site_fract_y
_atom_site_fract_z
     1  O          0.35511800       0.45618000       0.01931900
     2  O          0.64488200       0.95618000       0.98068100
     3  O          0.81520000       0.50141100       0.11220000
     4  O          0.18480000       0.00141100       0.88780000
     5  N          0.89320000       0.65641200       0.85630000
     6  N          0.10680000       0.15641200       0.14370000
     7  H          0.93642500       0.65249400       0.76724900
     8  H          0.06357500       0.15249400       0.23275100
     9  H          0.03567800       0.60752200       0.92526700
    10  H          0.96432200       0.10752200       0.07473300
    11  H          0.86231200       0.78058000       0.87887900
    12  H          0.13768800       0.28058000       0.12112100
    13  N          0.68030000       0.42441000       0.37830000
    14  N          0.31970000       0.92441000       0.62170000
    15  H          0.62017200       0.42046500       0.28278000
    16  H          0.37982800       0.92046500       0.71722000
    17  N          0.94230000       0.48751300       0.59430000
    18  N          0.05770000      -0.01248700       0.40570000
    19  C          0.60430000       0.49871400       0.01030000
    20  C          0.39570000      -0.00128600      -0.01030000
    21  C          0.70230000       0.38721300       0.61330000
    22  C          0.29770000       0.88721300       0.38670000
    23  C          0.63530000       0.53701100       0.85130000
    24  C          0.36470000       0.03701100       0.14870000
    25  H          0.47090100       0.61219300       0.79789200
    26  H          0.52909900       0.11219300       0.20210800
    27  C          0.54330000       0.34921300       0.47630000
    28  C          0.45670000       0.84921300       0.52370000
    29  H          0.37107500       0.28350400       0.45278400
    30  H          0.62892500       0.78350400       0.54721600
    31  C          0.65430000       0.34971300       0.76530000
    32  C          0.34570000       0.84971300       0.23470000
    33  H          0.80678800       0.26966300       0.82153800
    34  H          0.19321200       0.76966300       0.17846200
    35  H          0.48055700       0.27571400       0.75576100
    36  H          0.51944300       0.77571400       0.24423900
    37  C          0.92530000       0.50681900       0.45040000
    38  C          0.07470000       0.00681900       0.54960000
    39  H          0.05687700       0.56632400       0.40547900
    40  H          0.94312300       0.06632400       0.59452100
