data_LHISTD02
_symmetry_space_group_name_H-M    'P1'
_symmetry_Int_Tables_number       1
loop_
_symmetry_equiv_pos_site_id
_symmetry_equiv_pos_as_xyz
1 x,y,z
_cell_length_a                   5.1725
_cell_length_b                   7.3847
_cell_length_c                   9.4741
_cell_angle_alpha                90.0
_cell_angle_beta                 97.162
_cell_angle_gamma                90.0
loop_
_atom_site_label
_atom_site_type_symbol
_atom_site_fract_x
_atom_site_fract_y
_atom_site_fract_z
     1  C          0.45300000       0.76860000       0.49680000
     2  C          0.54700000       0.26860000       0.50320000
     3  C          0.39000000       0.82870000       0.64570000
     4  C          0.61000000       0.32870000       0.35430000
     5  C          0.35700000       0.66340000       0.73900000
     6  C          0.64300000       0.16340000       0.26100000
     7  C          0.29700000       0.71400000       0.88350000
     8  C          0.70300000       0.21400000       0.11650000
     9  C          0.07200000       0.83230000       0.03520000
    10  C          0.92800000       0.33230000       0.96480000
    11  C          0.43300000       0.66840000       0.01730000
    12  C          0.56700000       0.16840000       0.98270000
    13  H          0.53200000       0.90940000       0.69270000
    14  H          0.46800000       0.40940000       0.30730000
    15  H          0.12000000       0.03300000       0.57700000
    16  H          0.88000000       0.53300000       0.42300000
    17  H          0.96000000       0.90000000       0.55000000
    18  H          0.04000000       0.40000000       0.45000000
    19  H          0.53400000       0.59480000       0.75100000
    20  H          0.46600000       0.09480000       0.24900000
    21  H          0.22200000       0.58380000       0.69260000
    22  H          0.77800000       0.08380000       0.30740000
    23  H          0.93300000       0.89940000       0.07660000
    24  H          0.06700000       0.39940000       0.92340000
    25  H          0.59000000       0.59700000       0.03660000
    26  H          0.41000000       0.09700000       0.96340000
    27  H          0.31400000       0.73430000       0.21890000
    28  H          0.68600000       0.23430000       0.78110000
    29  H          0.00000000       0.97500000       0.71200000
    30  H         -0.00000000       0.47500000       0.28800000
    31  N          0.13600000       0.93190000       0.62510000
    32  N          0.86400000       0.43190000       0.37490000
    33  N          0.08300000       0.81610000       0.89570000
    34  N          0.91700000       0.31610000       0.10430000
    35  N          0.27900000       0.74390000       0.11310000
    36  N          0.72100000       0.24390000       0.88690000
    37  O          0.26400000       0.73970000       0.40040000
    38  O          0.73600000       0.23970000       0.59960000
    39  O          0.68700000       0.74430000       0.48940000
    40  O          0.31300000       0.24430000       0.51060000
