data_LHISTD10
_symmetry_space_group_name_H-M    'P1'
_symmetry_Int_Tables_number       1
loop_
_symmetry_equiv_pos_site_id
_symmetry_equiv_pos_as_xyz
1 x,y,z
_cell_length_a                   5.1775
_cell_length_b                   7.3227
_cell_length_c                   18.872
_cell_angle_alpha                90.0
_cell_angle_beta                 90.0
_cell_angle_gamma                90.0
loop_
_atom_site_label
_atom_site_type_symbol
_atom_site_fract_x
_atom_site_fract_y
_atom_site_fract_z
     1  C          0.06220000      -0.01700000       0.24630000
     2  C          0.56220000       0.51700000       0.75370000
     3  C          0.93780000       0.48300000       0.25370000
     4  C          0.43780000       0.01700000       0.74630000
     5  C          0.16470000       0.92350000       0.31970000
     6  C          0.66470000       0.57650000       0.68030000
     7  C          0.83530000       0.42350000       0.18030000
     8  C          0.33530000       0.07650000       0.81970000
     9  C          0.20890000       0.09070000       0.36740000
    10  C          0.70890000       0.40930000       0.63260000
    11  C          0.79110000       0.59070000       0.13260000
    12  C          0.29110000       0.90930000       0.86740000
    13  C          0.30820000       0.03980000       0.43970000
    14  C          0.80820000       0.46020000       0.56030000
    15  C          0.69180000       0.53980000       0.06030000
    16  C          0.19180000       0.96020000       0.93970000
    17  C          0.56290000       0.91840000       0.51630000
    18  C          0.06290000       0.58160000       0.48370000
    19  C          0.43710000       0.41840000       0.98370000
    20  C          0.93710000       0.08160000       0.01630000
    21  C          0.20920000       0.07740000       0.50500000
    22  C          0.70920000       0.42260000       0.49500000
    23  C          0.79080000       0.57740000      -0.00500000
    24  C          0.29080000       0.92260000       0.00500000
    25  H          0.48700000       0.81400000       0.35300000
    26  H         -0.01300000       0.68600000       0.64700000
    27  H          0.51300000       0.31400000       0.14700000
    28  H          0.01300000       0.18600000       0.85300000
    29  H          0.37400000       0.70500000       0.29600000
    30  H          0.87400000       0.79500000       0.70400000
    31  H          0.62600000       0.20500000       0.20400000
    32  H          0.12600000       0.29500000       0.79600000
    33  H          0.04100000       0.83800000       0.34200000
    34  H          0.54100000       0.66200000       0.65800000
    35  H          0.95900000       0.33800000       0.15800000
    36  H          0.45900000       0.16200000       0.84200000
    37  H          0.52400000       0.87700000       0.28100000
    38  H          0.02400000       0.62300000       0.71900000
    39  H          0.47600000       0.37700000       0.21900000
    40  H         -0.02400000       0.12300000       0.78100000
    41  H          0.34900000       0.00000000       0.60300000
    42  H          0.84900000       0.50000000       0.39700000
    43  H          0.65100000       0.50000000       0.89700000
    44  H          0.15100000       0.00000000       0.10300000
    45  H          0.04400000       0.15200000       0.37100000
    46  H          0.54400000       0.34800000       0.62900000
    47  H          0.95600000       0.65200000       0.12900000
    48  H          0.45600000       0.84800000       0.87100000
    49  H          0.32000000       0.18400000       0.34500000
    50  H          0.82000000       0.31600000       0.65500000
    51  H          0.68000000       0.68400000       0.15500000
    52  H          0.18000000       0.81600000       0.84500000
    53  H          0.70400000       0.85400000       0.53600000
    54  H          0.20400000       0.64600000       0.46400000
    55  H          0.29600000       0.35400000       0.96400000
    56  H          0.79600000       0.14600000       0.03600000
    57  H          0.05300000       0.14600000       0.51700000
    58  H          0.55300000       0.35400000       0.48300000
    59  H          0.94700000       0.64600000       0.98300000
    60  H          0.44700000       0.85400000       0.01700000
    61  N          0.41200000       0.82120000       0.31070000
    62  N          0.91200000       0.67880000       0.68930000
    63  N          0.58800000       0.32120000       0.18930000
    64  N          0.08800000       0.17880000       0.81070000
    65  N          0.53310000       0.93950000       0.44700000
    66  N          0.03310000       0.56050000       0.55300000
    67  N          0.46690000       0.43950000       0.05300000
    68  N          0.96690000       0.06050000       0.94700000
    69  N          0.37430000      -0.00050000       0.55340000
    70  N          0.87430000       0.50050000       0.44660000
    71  N          0.62570000       0.49950000       0.94660000
    72  N          0.12570000       0.00050000       0.05340000
    73  O          0.22490000       0.00470000       0.19820000
    74  O          0.72490000       0.49530000       0.80180000
    75  O          0.77510000       0.50470000       0.30180000
    76  O          0.27510000      -0.00470000       0.69820000
    77  O          0.82410000       0.00900000       0.24190000
    78  O          0.32410000       0.49100000       0.75810000
    79  O          0.17590000       0.50900000       0.25810000
    80  O          0.67590000      -0.00900000       0.74190000
