data_LICBIK
_symmetry_space_group_name_H-M    'P1'
_symmetry_Int_Tables_number       1
loop_
_symmetry_equiv_pos_site_id
_symmetry_equiv_pos_as_xyz
1 x,y,z
_cell_length_a                   5.744701
_cell_length_b                   16.41192
_cell_length_c                   32.22905
_cell_angle_alpha                90.0
_cell_angle_beta                 90.0
_cell_angle_gamma                90.0
loop_
_atom_site_label
_atom_site_type_symbol
_atom_site_fract_x
_atom_site_fract_y
_atom_site_fract_z
     1  I          0.19161400       0.97577912       0.40776060
     2  I          0.30838600       0.02422088       0.90776060
     3  I          0.69161400       0.52422088       0.59223940
     4  I          0.80838600       0.47577912       0.09223940
     5  I          0.80838600       0.02422088       0.59223940
     6  I          0.69161400       0.97577912       0.09223940
     7  I          0.30838600       0.47577912       0.40776060
     8  I          0.19161400       0.52422088       0.90776060
     9  F          0.64643000       0.07819110       0.43060500
    10  F          0.85357000       0.92180890       0.93060500
    11  F          0.14643000       0.42180890       0.56939500
    12  F          0.35357000       0.57819110       0.06939500
    13  F          0.35357000       0.92180890       0.56939500
    14  F          0.14643000       0.07819110       0.06939500
    15  F          0.85357000       0.57819110       0.43060500
    16  F          0.64643000       0.42180890       0.93060500
    17  F          0.10903000       0.90744100       0.49954500
    18  F          0.39097000       0.09255900      -0.00045500
    19  F          0.60903000       0.59255900       0.50045500
    20  F          0.89097000       0.40744100       0.00045500
    21  F          0.89097000       0.09255900       0.50045500
    22  F          0.60903000       0.90744100       0.00045500
    23  F          0.39097000       0.40744100       0.49954500
    24  F          0.10903000       0.59255900      -0.00045500
    25  C          0.37325000       0.99139170       0.46300900
    26  C          0.12675000       0.00860830       0.96300900
    27  C          0.87325000       0.50860830       0.53699100
    28  C          0.62675000       0.49139170       0.03699100
    29  C          0.62675000       0.00860830       0.53699100
    30  C          0.87325000       0.99139170       0.03699100
    31  C          0.12675000       0.49139170       0.46300900
    32  C          0.37325000       0.50860830       0.96300900
    33  C          0.57225000       0.03856160       0.46458900
    34  C          0.92775000       0.96143840       0.96458900
    35  C          0.07225000       0.46143840       0.53541100
    36  C          0.42775000       0.53856160       0.03541100
    37  C          0.42775000       0.96143840       0.53541100
    38  C          0.07225000       0.03856160       0.03541100
    39  C          0.92775000       0.53856160       0.46458900
    40  C          0.57225000       0.46143840       0.96458900
    41  C          0.30305000       0.95349160       0.49905900
    42  C          0.19695000       0.04650840      -0.00094100
    43  C          0.80305000       0.54650840       0.50094100
    44  C          0.69695000       0.45349160       0.00094100
    45  C          0.69695000       0.04650840       0.50094100
    46  C          0.80305000       0.95349160       0.00094100
    47  C          0.19695000       0.45349160       0.49905900
    48  C          0.30305000       0.54650840      -0.00094100
    49  P          0.83837890       0.21664400       0.32127200
    50  P          0.66162110       0.78335600       0.82127200
    51  P          0.33837890       0.28335600       0.67872800
    52  P          0.16162110       0.71664400       0.17872800
    53  P          0.16162110       0.78335600       0.67872800
    54  P          0.33837890       0.21664400       0.17872800
    55  P          0.66162110       0.71664400       0.32127200
    56  P          0.83837890       0.28335600       0.82127200
    57  O          0.58817000       0.23418110       0.31353600
    58  O          0.91183000       0.76581890       0.81353600
    59  O          0.08817000       0.26581890       0.68646400
    60  O          0.41183000       0.73418110       0.18646400
    61  O          0.41183000       0.76581890       0.68646400
    62  O          0.08817000       0.23418110       0.18646400
    63  O          0.91183000       0.73418110       0.31353600
    64  O          0.58817000       0.26581890       0.81353600
    65  C          0.03585000       0.27272160       0.28938800
    66  C          0.46415000       0.72727840       0.78938800
    67  C          0.53585000       0.22727840       0.71061200
    68  C          0.96415000       0.77272160       0.21061200
    69  C          0.96415000       0.72727840       0.71061200
    70  C          0.53585000       0.27272160       0.21061200
    71  C          0.46415000       0.77272160       0.28938800
    72  C          0.03585000       0.22727840       0.78938800
    73  H          0.02090000       0.25450000       0.26050000
    74  H          0.47910000       0.74550000       0.76050000
    75  H          0.52090000       0.24550000       0.73950000
    76  H         -0.02090000       0.75450000       0.23950000
    77  H         -0.02090000       0.74550000       0.73950000
    78  H          0.52090000       0.25450000       0.23950000
    79  H          0.47910000       0.75450000       0.26050000
    80  H          0.02090000       0.24550000       0.76050000
    81  H          0.19550000       0.26350000       0.29900000
    82  H          0.30450000       0.73650000       0.79900000
    83  H          0.69550000       0.23650000       0.70100000
    84  H          0.80450000       0.76350000       0.20100000
    85  H          0.80450000       0.73650000       0.70100000
    86  H          0.69550000       0.26350000       0.20100000
    87  H          0.30450000       0.76350000       0.29900000
    88  H          0.19550000       0.23650000       0.79900000
    89  H         -0.00080000       0.33090000       0.29110000
    90  H          0.50080000       0.66910000       0.79110000
    91  H          0.49920000       0.16910000       0.70890000
    92  H          0.00080000       0.83090000       0.20890000
    93  H          0.00080000       0.66910000       0.70890000
    94  H          0.49920000       0.33090000       0.20890000
    95  H          0.50080000       0.83090000       0.29110000
    96  H         -0.00080000       0.16910000       0.79110000
    97  C          0.91655000       0.23964150       0.37430800
    98  C          0.58345000       0.76035850       0.87430800
    99  C          0.41655000       0.26035850       0.62569200
   100  C          0.08345000       0.73964150       0.12569200
   101  C          0.08345000       0.76035850       0.62569200
   102  C          0.41655000       0.23964150       0.12569200
   103  C          0.58345000       0.73964150       0.37430800
   104  C          0.91655000       0.26035850       0.87430800
   105  C          0.12885000       0.21438180       0.39133900
   106  C          0.37115000       0.78561820       0.89133900
   107  C          0.62885000       0.28561820       0.60866100
   108  C          0.87115000       0.71438180       0.10866100
   109  C          0.87115000       0.78561820       0.60866100
   110  C          0.62885000       0.21438180       0.10866100
   111  C          0.37115000       0.71438180       0.39133900
   112  C          0.12885000       0.28561820       0.89133900
   113  H          0.23870000       0.18640000       0.37450000
   114  H          0.26130000       0.81360000       0.87450000
   115  H          0.73870000       0.31360000       0.62550000
   116  H          0.76130000       0.68640000       0.12550000
   117  H          0.76130000       0.81360000       0.62550000
   118  H          0.73870000       0.18640000       0.12550000
   119  H          0.26130000       0.68640000       0.37450000
   120  H          0.23870000       0.31360000       0.87450000
   121  C          0.17915000       0.23013180       0.43261900
   122  C          0.32085000       0.76986820       0.93261900
   123  C          0.67915000       0.26986820       0.56738100
   124  C          0.82085000       0.73013180       0.06738100
   125  C          0.82085000       0.76986820       0.56738100
   126  C          0.67915000       0.23013180       0.06738100
   127  C          0.32085000       0.73013180       0.43261900
   128  C          0.17915000       0.26986820       0.93261900
   129  H          0.32220000       0.21210000       0.44420000
   130  H          0.17780000       0.78790000       0.94420000
   131  H          0.82220000       0.28790000       0.55580000
   132  H          0.67780000       0.71210000       0.05580000
   133  H          0.67780000       0.78790000       0.55580000
   134  H          0.82220000       0.21210000       0.05580000
   135  H          0.17780000       0.71210000       0.44420000
   136  H          0.32220000       0.28790000       0.94420000
   137  C          0.02145000       0.27192160       0.45691900
   138  C          0.47855000       0.72807840       0.95691900
   139  C          0.52145000       0.22807840       0.54308100
   140  C         -0.02145000       0.77192160       0.04308100
   141  C         -0.02145000       0.72807840       0.54308100
   142  C          0.52145000       0.27192160       0.04308100
   143  C          0.47855000       0.77192160       0.45691900
   144  C          0.02145000       0.22807840       0.95691900
   145  H          0.05650000       0.28280000       0.48520000
   146  H          0.44350000       0.71720000       0.98520000
   147  H          0.55650000       0.21720000       0.51480000
   148  H          0.94350000       0.78280000       0.01480000
   149  H          0.94350000       0.71720000       0.51480000
   150  H          0.55650000       0.28280000       0.01480000
   151  H          0.44350000       0.78280000       0.48520000
   152  H          0.05650000       0.21720000       0.98520000
   153  C          0.81305000       0.29787180       0.44026900
   154  C          0.68695000       0.70212820       0.94026900
   155  C          0.31305000       0.20212820       0.55973100
   156  C          0.18695000       0.79787180       0.05973100
   157  C          0.18695000       0.70212820       0.55973100
   158  C          0.31305000       0.29787180       0.05973100
   159  C          0.68695000       0.79787180       0.44026900
   160  C          0.81305000       0.20212820       0.94026900
   161  H          0.70560000       0.32710000       0.45700000
   162  H          0.79440000       0.67290000       0.95700000
   163  H          0.20560000       0.17290000       0.54300000
   164  H          0.29440000       0.82710000       0.04300000
   165  H          0.29440000       0.67290000       0.54300000
   166  H          0.20560000       0.32710000       0.04300000
   167  H          0.79440000       0.82710000       0.45700000
   168  H          0.70560000       0.17290000       0.95700000
   169  C          0.76045000       0.28130170       0.39904900
   170  C          0.73955000       0.71869830       0.89904900
   171  C          0.26045000       0.21869830       0.60095100
   172  C          0.23955000       0.78130170       0.10095100
   173  C          0.23955000       0.71869830       0.60095100
   174  C          0.26045000       0.28130170       0.10095100
   175  C          0.73955000       0.78130170       0.39904900
   176  C          0.76045000       0.21869830       0.89904900
   177  H          0.61610000       0.29880000       0.38780000
   178  H          0.88390000       0.70120000       0.88780000
   179  H          0.11610000       0.20120000       0.61220000
   180  H          0.38390000       0.79880000       0.11220000
   181  H          0.38390000       0.70120000       0.61220000
   182  H          0.11610000       0.29880000       0.11220000
   183  H          0.88390000       0.79880000       0.38780000
   184  H          0.61610000       0.20120000       0.88780000
   185  C          0.90625000       0.11012160       0.31436800
   186  C          0.59375000       0.88987840       0.81436800
   187  C          0.40625000       0.38987840       0.68563200
   188  C          0.09375000       0.61012160       0.18563200
   189  C          0.09375000       0.88987840       0.68563200
   190  C          0.40625000       0.11012160       0.18563200
   191  C          0.59375000       0.61012160       0.31436800
   192  C          0.90625000       0.38987840       0.81436800
   193  C          0.74775000       0.05384180       0.33026900
   194  C          0.75225000       0.94615820       0.83026900
   195  C          0.24775000       0.44615820       0.66973100
   196  C          0.25225000       0.55384180       0.16973100
   197  C          0.25225000       0.94615820       0.66973100
   198  C          0.24775000       0.05384180       0.16973100
   199  C          0.75225000       0.55384180       0.33026900
   200  C          0.74775000       0.44615820       0.83026900
   201  H          0.60990000       0.07270000       0.34340000
   202  H          0.89010000       0.92730000       0.84340000
   203  H          0.10990000       0.42730000       0.65660000
   204  H          0.39010000       0.57270000       0.15660000
   205  H          0.39010000       0.92730000       0.65660000
   206  H          0.10990000       0.07270000       0.15660000
   207  H          0.89010000       0.57270000       0.34340000
   208  H          0.60990000       0.42730000       0.84340000
   209  C          0.78845000       0.97113180       0.32715900
   210  C          0.71155000       0.02886820       0.82715900
   211  C          0.28845000       0.52886820       0.67284100
   212  C          0.21155000       0.47113180       0.17284100
   213  C          0.21155000       0.02886820       0.67284100
   214  C          0.28845000       0.97113180       0.17284100
   215  C          0.71155000       0.47113180       0.32715900
   216  C          0.78845000       0.52886820       0.82715900
   217  H          0.68010000       0.93350000       0.33850000
   218  H          0.81990000       0.06650000       0.83850000
   219  H          0.18010000       0.56650000       0.66150000
   220  H          0.31990000       0.43350000       0.16150000
   221  H          0.31990000       0.06650000       0.66150000
   222  H          0.18010000       0.93350000       0.16150000
   223  H          0.81990000       0.43350000       0.33850000
   224  H          0.68010000       0.56650000       0.83850000
   225  C         -0.01295000       0.94321180       0.30754900
   226  C          0.51295000       0.05678820       0.80754900
   227  C          0.48705000       0.55678820       0.69245100
   228  C          0.01295000       0.44321180       0.19245100
   229  C          0.01295000       0.05678820       0.69245100
   230  C          0.48705000       0.94321180       0.19245100
   231  C          0.51295000       0.44321180       0.30754900
   232  C         -0.01295000       0.55678820       0.80754900
   233  H          0.01450000       0.88630000       0.30520000
   234  H          0.48550000       0.11370000       0.80520000
   235  H          0.51450000       0.61370000       0.69480000
   236  H         -0.01450000       0.38630000       0.19480000
   237  H         -0.01450000       0.11370000       0.69480000
   238  H          0.51450000       0.88630000       0.19480000
   239  H          0.48550000       0.38630000       0.30520000
   240  H          0.01450000       0.61370000       0.80520000
   241  C          0.14665000      -0.00181820       0.29132100
   242  C          0.35335000       0.00181820       0.79132100
   243  C          0.64665000       0.50181820       0.70867900
   244  C          0.85335000       0.49818180       0.20867900
   245  C          0.85335000       0.00181820       0.70867900
   246  C          0.64665000      -0.00181820       0.20867900
   247  C          0.35335000       0.49818180       0.29132100
   248  C          0.14665000       0.50181820       0.79132100
   249  H          0.28240000       0.97890000       0.27770000
   250  H          0.21760000       0.02110000       0.77770000
   251  H          0.78240000       0.52110000       0.72230000
   252  H          0.71760000       0.47890000       0.22230000
   253  H          0.71760000       0.02110000       0.72230000
   254  H          0.78240000       0.97890000       0.22230000
   255  H          0.21760000       0.47890000       0.27770000
   256  H          0.28240000       0.52110000       0.77770000
   257  C          0.10755000       0.08128170       0.29505900
   258  C          0.39245000       0.91871830       0.79505900
   259  C          0.60755000       0.41871830       0.70494100
   260  C          0.89245000       0.58128170       0.20494100
   261  C          0.89245000       0.91871830       0.70494100
   262  C          0.60755000       0.08128170       0.20494100
   263  C          0.39245000       0.58128170       0.29505900
   264  C          0.10755000       0.41871830       0.79505900
   265  H          0.21840000       0.11880000       0.28440000
   266  H          0.28160000       0.88120000       0.78440000
   267  H          0.71840000       0.38120000       0.71560000
   268  H          0.78160000       0.61880000       0.21560000
   269  H          0.78160000       0.88120000       0.71560000
   270  H          0.71840000       0.11880000       0.21560000
   271  H          0.28160000       0.61880000       0.28440000
   272  H          0.21840000       0.38120000       0.78440000
