data_LICBIK03
_symmetry_space_group_name_H-M    'P1'
_symmetry_Int_Tables_number       1
loop_
_symmetry_equiv_pos_site_id
_symmetry_equiv_pos_as_xyz
1 x,y,z
_cell_length_a                   6.04474
_cell_length_b                   11.56566
_cell_length_c                   12.57577
_cell_angle_alpha                113.4305
_cell_angle_beta                 100.7335
_cell_angle_gamma                97.5825
loop_
_atom_site_label
_atom_site_type_symbol
_atom_site_fract_x
_atom_site_fract_y
_atom_site_fract_z
     1  C          0.51355000       0.12763000       0.08443000
     2  C          0.48645000       0.87237000       0.91557000
     3  C          0.69805000       0.06903000       0.09003000
     4  C          0.30195000       0.93097000       0.90997000
     5  C          0.68385000       0.94487000       0.00843000
     6  C          0.31615000       0.05513000      -0.00843000
     7  F          0.89403000       0.13368170       0.17659170
     8  F          0.10597000       0.86631830       0.82340830
     9  F          0.87013000       0.89332830       0.01926180
    10  F          0.12987000       0.10667170       0.98073820
    11  I          0.53710300       0.31551200       0.20959200
    12  I          0.46289700       0.68448800       0.79040800
    13  C          0.44095000       0.78513000       0.50673000
    14  C          0.55905000       0.21487000       0.49327000
    15  C          0.65825000       0.83733000       0.58593000
    16  C          0.34175000       0.16267000       0.41407000
    17  H          0.77739700       0.79134200       0.57343300
    18  H          0.22260300       0.20865800       0.42656700
    19  C          0.70216000       0.95643000       0.68353000
    20  C          0.29784000       0.04357000       0.31647000
    21  H          0.85099300      -0.00883400       0.73856600
    22  H          0.14900700       0.00883400       0.26143400
    23  C          0.53316000       0.02503000       0.70183000
    24  C          0.46684000       0.97497000       0.29817000
    25  H          0.56565800       0.10760800       0.76801700
    26  H          0.43434200       0.89239200       0.23198300
    27  C          0.31786000       0.97354000       0.62394000
    28  C          0.68214000       0.02646000       0.37606000
    29  H          0.19990600       0.02028400       0.63707600
    30  H          0.80009400       0.97971600       0.36292400
    31  C          0.26936000       0.85464000       0.52643000
    32  C          0.73064000       0.14536000       0.47357000
    33  H          0.11892000       0.82006600       0.47274700
    34  H          0.88108000       0.17993400       0.52725300
    35  C          0.26595000       0.63952000       0.24742000
    36  C          0.73405000       0.36048000       0.75258000
    37  C          0.05075000       0.67023000       0.22293000
    38  C          0.94925000       0.32977000       0.77707000
    39  H          0.95680000       0.68066500       0.27735900
    40  H          0.04320000       0.31933500       0.72264100
    41  C         -0.02445000       0.68513000       0.11913000
    42  C          0.02445000       0.31487000       0.88087000
    43  H          0.83221700       0.70859300       0.10406400
    44  H          0.16778300       0.29140700       0.89593600
    45  C          0.10715000       0.66613000       0.03673000
    46  C          0.89285000       0.33387000       0.96327000
    47  H          0.05473000       0.67694200       0.96592400
    48  H          0.94527000       0.32305800       0.03407600
    49  C          0.31645000       0.63113000       0.05873000
    50  C          0.68355000       0.36887000       0.94127000
    51  H          0.40538200       0.61555400       0.00169100
    52  H          0.59461800       0.38444600      -0.00169100
    53  C          0.39545000       0.61873000       0.16363000
    54  C          0.60455000       0.38127000       0.83637000
    55  H          0.53946000       0.59585400       0.17846500
    56  H          0.46054000       0.40414600       0.82153500
    57  C          0.16475000       0.52643000       0.40493000
    58  C          0.83525000       0.47357000       0.59507000
    59  H          0.22262600       0.51814300       0.47913200
    60  H          0.77737400       0.48185700       0.52086800
    61  H          0.11935300       0.44049400       0.33669400
    62  H          0.88064700       0.55950600       0.66330600
    63  H          0.03039800       0.56534800       0.41053100
    64  H         -0.03039800       0.43465200       0.58946900
    65  O          0.60263000       0.57700190       0.37724190
    66  O          0.39737000       0.42299810       0.62275810
    67  P          0.38636120       0.62659700       0.38376700
    68  P          0.61363880       0.37340300       0.61623300
