data_LPYGLU
_symmetry_space_group_name_H-M    'P1'
_symmetry_Int_Tables_number       1
loop_
_symmetry_equiv_pos_site_id
_symmetry_equiv_pos_as_xyz
1 x,y,z
_cell_length_a                   9.0188
_cell_length_b                   13.4958
_cell_length_c                   14.6624
_cell_angle_alpha                90.0
_cell_angle_beta                 90.0
_cell_angle_gamma                90.0
loop_
_atom_site_label
_atom_site_type_symbol
_atom_site_fract_x
_atom_site_fract_y
_atom_site_fract_z
     1  O          0.24230000       0.87870000       0.18790000
     2  O          0.74230000       0.62130000       0.81210000
     3  O          0.75770000       0.37870000       0.31210000
     4  O          0.25770000       0.12130000       0.68790000
     5  O          0.34690000       0.02600000       0.20520000
     6  O          0.84690000       0.47400000       0.79480000
     7  O          0.65310000       0.52600000       0.29480000
     8  O          0.15310000       0.97400000       0.70520000
     9  O          0.34760000       0.07970000       0.52580000
    10  O          0.84760000       0.42030000       0.47420000
    11  O          0.65240000       0.57970000       0.97420000
    12  O          0.15240000       0.92030000       0.02580000
    13  N          0.37520000       0.00060000       0.38940000
    14  N          0.87520000       0.49940000       0.61060000
    15  N          0.62480000       0.50060000       0.11060000
    16  N          0.12480000      -0.00060000       0.88940000
    17  C          0.30220000       0.94860000       0.23560000
    18  C          0.80220000       0.55140000       0.76440000
    19  C          0.69780000       0.44860000       0.26440000
    20  C          0.19780000       0.05140000       0.73560000
    21  C          0.31050000       0.92130000       0.33590000
    22  C          0.81050000       0.57870000       0.66410000
    23  C          0.68950000       0.42130000       0.16410000
    24  C          0.18950000       0.07870000       0.83590000
    25  C          0.30690000       0.01710000       0.46920000
    26  C          0.80690000       0.48290000       0.53080000
    27  C          0.69310000       0.51710000       0.03080000
    28  C          0.19310000       0.98290000       0.96920000
    29  C          0.17860000       0.94790000       0.47610000
    30  C          0.67860000       0.55210000       0.52390000
    31  C          0.82140000       0.44790000       0.02390000
    32  C          0.32140000       0.05210000       0.97610000
    33  C          0.15770000       0.90870000       0.37950000
    34  C          0.65770000       0.59130000       0.62050000
    35  C          0.84230000       0.40870000       0.12050000
    36  C          0.34230000       0.09130000       0.87950000
    37  H          0.24000000       0.90000000       0.12600000
    38  H          0.74000000       0.60000000       0.87400000
    39  H          0.76000000       0.40000000       0.37400000
    40  H          0.26000000       0.10000000       0.62600000
    41  H          0.45300000       0.02900000       0.38000000
    42  H          0.95300000       0.47100000       0.62000000
    43  H          0.54700000       0.52900000       0.12000000
    44  H          0.04700000       0.97100000       0.88000000
    45  H          0.36100000       0.85400000       0.34100000
    46  H          0.86100000       0.64600000       0.65900000
    47  H          0.63900000       0.35400000       0.15900000
    48  H          0.13900000       0.14600000       0.84100000
    49  H          0.09100000       0.98200000       0.50000000
    50  H          0.59100000       0.51800000       0.50000000
    51  H          0.90900000       0.48200000      -0.00000000
    52  H          0.40900000       0.01800000      -0.00000000
    53  H          0.20300000       0.89600000       0.52000000
    54  H          0.70300000       0.60400000       0.48000000
    55  H          0.79700000       0.39600000       0.98000000
    56  H          0.29700000       0.10400000       0.02000000
    57  H          0.08800000       0.94900000       0.35000000
    58  H          0.58800000       0.55100000       0.65000000
    59  H          0.91200000       0.44900000       0.15000000
    60  H          0.41200000       0.05100000       0.85000000
    61  H          0.12700000       0.84200000       0.38100000
    62  H          0.62700000       0.65800000       0.61900000
    63  H          0.87300000       0.34200000       0.11900000
    64  H          0.37300000       0.15800000       0.88100000
    65  O          0.17710000       0.24680000       0.15780000
    66  O          0.67710000       0.25320000       0.84220000
    67  O          0.82290000       0.74680000       0.34220000
    68  O          0.32290000       0.75320000       0.65780000
    69  O          0.35370000       0.35760000       0.18310000
    70  O          0.85370000       0.14240000       0.81690000
    71  O          0.64630000       0.85760000       0.31690000
    72  O          0.14630000       0.64240000       0.68310000
    73  O          0.40730000       0.37410000       0.49860000
    74  O          0.90730000       0.12590000       0.50140000
    75  O          0.59270000       0.87410000       0.00140000
    76  O          0.09270000       0.62590000      -0.00140000
    77  N          0.38490000       0.29700000       0.36130000
    78  N          0.88490000       0.20300000       0.63870000
    79  N          0.61510000       0.79700000       0.13870000
    80  N          0.11510000       0.70300000       0.86130000
    81  C          0.27640000       0.28850000       0.20820000
    82  C          0.77640000       0.21150000       0.79180000
    83  C          0.72360000       0.78850000       0.29180000
    84  C          0.22360000       0.71150000       0.70820000
    85  C          0.27870000       0.24710000       0.30370000
    86  C          0.77870000       0.25290000       0.69630000
    87  C          0.72130000       0.74710000       0.19630000
    88  C          0.22130000       0.75290000       0.80370000
    89  C          0.33220000       0.32990000       0.44080000
    90  C          0.83220000       0.17010000       0.55920000
    91  C          0.66780000       0.82990000       0.05920000
    92  C          0.16780000       0.67010000       0.94080000
    93  C          0.17290000       0.30370000       0.44640000
    94  C          0.67290000       0.19630000       0.55360000
    95  C          0.82710000       0.80370000       0.05360000
    96  C          0.32710000       0.69630000       0.94640000
    97  C          0.13330000       0.26470000       0.35450000
    98  C          0.63330000       0.23530000       0.64550000
    99  C          0.86670000       0.76470000       0.14550000
   100  C          0.36670000       0.73530000       0.85450000
   101  H          0.18900000       0.27300000       0.10100000
   102  H          0.68900000       0.22700000       0.89900000
   103  H          0.81100000       0.77300000       0.39900000
   104  H          0.31100000       0.72700000       0.60100000
   105  H          0.46700000       0.30100000       0.35000000
   106  H          0.96700000       0.19900000       0.65000000
   107  H          0.53300000       0.80100000       0.15000000
   108  H          0.03300000       0.69900000       0.85000000
   109  H          0.30400000       0.17300000       0.29700000
   110  H          0.80400000       0.32700000       0.70300000
   111  H          0.69600000       0.67300000       0.20300000
   112  H          0.19600000       0.82700000       0.79700000
   113  H          0.11600000       0.35600000       0.47000000
   114  H          0.61600000       0.14400000       0.53000000
   115  H          0.88400000       0.85600000       0.03000000
   116  H          0.38400000       0.64400000       0.97000000
   117  H          0.17400000       0.26000000       0.48800000
   118  H          0.67400000       0.24000000       0.51200000
   119  H          0.82600000       0.76000000       0.01200000
   120  H          0.32600000       0.74000000       0.98800000
   121  H          0.07200000       0.32200000       0.32300000
   122  H          0.57200000       0.17800000       0.67700000
   123  H          0.92800000       0.82200000       0.17700000
   124  H          0.42800000       0.67800000       0.82300000
   125  H          0.05900000       0.22800000       0.34400000
   126  H          0.55900000       0.27200000       0.65600000
   127  H          0.94100000       0.72800000       0.15600000
   128  H          0.44100000       0.77200000       0.84400000
   129  O          0.35810000       0.43060000       0.66180000
   130  O          0.85810000       0.06940000       0.33820000
   131  O          0.64190000       0.93060000       0.83820000
   132  O          0.14190000       0.56940000       0.16180000
   133  O          0.13370000       0.36430000       0.67130000
   134  O          0.63370000       0.13570000       0.32870000
   135  O          0.86630000       0.86430000       0.82870000
   136  O          0.36630000       0.63570000       0.17130000
   137  O          0.11270000       0.30460000      -0.00350000
   138  O          0.61270000       0.19540000       0.00350000
   139  O          0.88730000       0.80460000       0.50350000
   140  O          0.38730000       0.69540000       0.49650000
   141  N          0.13790000       0.38090000       0.85890000
   142  N          0.63790000       0.11910000       0.14110000
   143  N          0.86210000       0.88090000       0.64110000
   144  N          0.36210000       0.61910000       0.35890000
   145  C          0.23850000       0.40460000       0.70560000
   146  C          0.73850000       0.09540000       0.29440000
   147  C          0.76150000       0.90460000       0.79440000
   148  C          0.26150000       0.59540000       0.20560000
   149  C          0.24520000       0.43450000       0.80530000
   150  C          0.74520000       0.06550000       0.19470000
   151  C          0.75480000       0.93450000       0.69470000
   152  C          0.25480000       0.56550000       0.30530000
   153  C          0.18780000       0.35000000       0.94000000
   154  C          0.68780000       0.15000000       0.06000000
   155  C          0.81220000       0.85000000       0.56000000
   156  C          0.31220000       0.65000000       0.44000000
   157  C          0.34590000       0.38150000       0.94840000
   158  C          0.84590000       0.11850000       0.05160000
   159  C          0.65410000       0.88150000       0.55160000
   160  C          0.15410000       0.61850000       0.44840000
   161  C          0.39100000       0.41060000       0.85290000
   162  C          0.89100000       0.08940000       0.14710000
   163  C          0.60900000       0.91060000       0.64710000
   164  C          0.10900000       0.58940000       0.35290000
   165  H          0.35400000       0.40900000       0.60400000
   166  H          0.85400000       0.09100000       0.39600000
   167  H          0.64600000       0.90900000       0.89600000
   168  H          0.14600000       0.59100000       0.10400000
   169  H          0.04200000       0.37600000       0.84400000
   170  H          0.54200000       0.12400000       0.15600000
   171  H          0.95800000       0.87600000       0.65600000
   172  H          0.45800000       0.62400000       0.34400000
   173  H          0.22100000       0.50100000       0.80400000
   174  H          0.72100000      -0.00100000       0.19600000
   175  H          0.77900000       0.00100000       0.69600000
   176  H          0.27900000       0.49900000       0.30400000
   177  H          0.40100000       0.33000000       0.97300000
   178  H          0.90100000       0.17000000       0.02700000
   179  H          0.59900000       0.83000000       0.52700000
   180  H          0.09900000       0.67000000       0.47300000
   181  H          0.35700000       0.43500000       0.98900000
   182  H          0.85700000       0.06500000       0.01100000
   183  H          0.64300000       0.93500000       0.51100000
   184  H          0.14300000       0.56500000       0.48900000
   185  H          0.44700000       0.35100000       0.81400000
   186  H          0.94700000       0.14900000       0.18600000
   187  H          0.55300000       0.85100000       0.68600000
   188  H          0.05300000       0.64900000       0.31400000
   189  H          0.47200000       0.45900000       0.85400000
   190  H          0.97200000       0.04100000       0.14600000
   191  H          0.52800000       0.95900000       0.64600000
   192  H          0.02800000       0.54100000       0.35400000
