data_LPYGLU02
_symmetry_space_group_name_H-M    'P1'
_symmetry_Int_Tables_number       1
loop_
_symmetry_equiv_pos_site_id
_symmetry_equiv_pos_as_xyz
1 x,y,z
_cell_length_a                   8.18653
_cell_length_b                   14.33175
_cell_length_c                   14.65855
_cell_angle_alpha                90.0
_cell_angle_beta                 90.0
_cell_angle_gamma                90.0
loop_
_atom_site_label
_atom_site_type_symbol
_atom_site_fract_x
_atom_site_fract_y
_atom_site_fract_z
     1  C          0.32552000       0.64635130       0.23306120
     2  C          0.17448000       0.35364870       0.73306120
     3  C          0.82552000       0.85364870       0.76693880
     4  C          0.67448000       0.14635130       0.26693880
     5  C          0.35572000       0.62604130       0.33285120
     6  C          0.14428000       0.37395870       0.83285120
     7  C          0.85572000       0.87395870       0.66714880
     8  C          0.64428000       0.12604130       0.16714880
     9  H          0.44850000       0.58110000       0.33940000
    10  H          0.05150000       0.41890000       0.83940000
    11  H          0.94850000       0.91890000       0.66060000
    12  H          0.55150000       0.08110000       0.16060000
    13  C          0.20292000       0.58749140       0.38168120
    14  C          0.29708000       0.41250860       0.88168120
    15  C          0.70292000       0.91250860       0.61831880
    16  C          0.79708000       0.08749140       0.11831880
    17  H          0.10160000       0.60970000       0.35190000
    18  H          0.39840000       0.39030000       0.85190000
    19  H          0.60160000       0.89030000       0.64810000
    20  H          0.89840000       0.10970000       0.14810000
    21  H          0.20310000       0.51840000       0.38210000
    22  H          0.29690000       0.48160000       0.88210000
    23  H          0.70310000       0.98160000       0.61790000
    24  H          0.79690000       0.01840000       0.11790000
    25  C          0.21772000       0.62641130       0.47854130
    26  C          0.28228000       0.37358870       0.97854130
    27  C          0.71772000       0.87358870       0.52145870
    28  C          0.78228000       0.12641130       0.02145870
    29  H          0.10890000       0.64140000       0.50400000
    30  H          0.39110000       0.35860000       0.00400000
    31  H          0.60890000       0.85860000       0.49600000
    32  H          0.89110000       0.14140000      -0.00400000
    33  H          0.27300000       0.58130000       0.51930000
    34  H          0.22700000       0.41870000       0.01930000
    35  H          0.77300000       0.91870000       0.48070000
    36  H          0.72700000       0.08130000       0.98070000
    37  C          0.31862000       0.71311120       0.46697120
    38  C          0.18138000       0.28688880       0.96697120
    39  C          0.81862000       0.78688880       0.53302880
    40  C          0.68138000       0.21311120       0.03302880
    41  N          0.38972190       0.71049110       0.38460100
    42  N          0.11027810       0.28950890       0.88460100
    43  N          0.88972190       0.78950890       0.61539900
    44  N          0.61027810       0.21049110       0.11539900
    45  H          0.45160000       0.75590000       0.36370000
    46  H          0.04840000       0.24410000       0.86370000
    47  H          0.95160000       0.74410000       0.63630000
    48  H          0.54840000       0.25590000       0.13630000
    49  O          0.29935170       0.56921900       0.18664900
    50  O          0.20064830       0.43078100       0.68664900
    51  O          0.79935170       0.93078100       0.81335100
    52  O          0.70064830       0.06921900       0.31335100
    53  H          0.28300000       0.58240000       0.13160000
    54  H          0.21700000       0.41760000       0.63160000
    55  H          0.78300000       0.91760000       0.86840000
    56  H          0.71700000       0.08240000       0.36840000
    57  O          0.32742000       0.72381900       0.20055900
    58  O          0.17258000       0.27618100       0.70055900
    59  O          0.82742000       0.77618100       0.79944100
    60  O          0.67258000       0.22381900       0.29944100
    61  O          0.33864190       0.77796900       0.52173900
    62  O          0.16135810       0.22203100       0.02173900
    63  O          0.83864190       0.72203100       0.47826100
    64  O          0.66135810       0.27796900       0.97826100
    65  C          0.27602000       0.26540130       0.23745120
    66  C          0.22398000       0.73459870       0.73745120
    67  C          0.77602000       0.23459870       0.76254880
    68  C          0.72398000       0.76540130       0.26254880
    69  C          0.27882000       0.24826120       0.33909120
    70  C          0.22118000       0.75173880       0.83909120
    71  C          0.77882000       0.25173880       0.66090880
    72  C          0.72118000       0.74826120       0.16090880
    73  H          0.34800000       0.19230000       0.35220000
    74  H          0.15200000       0.80770000       0.85220000
    75  H          0.84800000       0.30770000       0.64780000
    76  H          0.65200000       0.69230000       0.14780000
    77  C          0.10972000       0.23470140       0.38283130
    78  C          0.39028000       0.76529860       0.88283130
    79  C          0.60972000       0.26529860       0.61716870
    80  C          0.89028000       0.73470140       0.11716870
    81  H          0.02470000       0.27000000       0.34930000
    82  H          0.47530000       0.73000000       0.84930000
    83  H          0.52470000       0.23000000       0.65070000
    84  H          0.97530000       0.77000000       0.15070000
    85  H          0.07890000       0.16790000       0.38440000
    86  H          0.42110000       0.83210000       0.88440000
    87  H          0.57890000       0.33210000       0.61560000
    88  H          0.92110000       0.66790000       0.11560000
    89  C          0.13322000       0.27341130       0.47913130
    90  C          0.36678000       0.72658870       0.97913130
    91  C          0.63322000       0.22658870       0.52086870
    92  C          0.86678000       0.77341130       0.02086870
    93  H          0.03250000       0.30440000       0.50110000
    94  H          0.46750000       0.69560000       0.00110000
    95  H          0.53250000       0.19560000       0.49890000
    96  H          0.96750000       0.80440000      -0.00110000
    97  H          0.16350000       0.22320000       0.52230000
    98  H          0.33650000       0.77680000       0.02230000
    99  H          0.66350000       0.27680000       0.47770000
   100  H          0.83650000       0.72320000       0.97770000
   101  C          0.27062000       0.34284120       0.46865120
   102  C          0.22938000       0.65715880       0.96865120
   103  C          0.77062000       0.15715880       0.53134880
   104  C          0.72938000       0.84284120       0.03134880
   105  N          0.34354180       0.32796100       0.38824100
   106  N          0.15645820       0.67203900       0.88824100
   107  N          0.84354180       0.17203900       0.61175900
   108  N          0.65645820       0.82796100       0.11175900
   109  H          0.42310000       0.36320000       0.36720000
   110  H          0.07690000       0.63680000       0.86720000
   111  H          0.92310000       0.13680000       0.63280000
   112  H          0.57690000       0.86320000       0.13280000
   113  O          0.19883190       0.19880100       0.19381100
   114  O          0.30116810       0.80119900       0.69381100
   115  O          0.69883190       0.30119900       0.80618900
   116  O          0.80116810       0.69880100       0.30618900
   117  H          0.19930000       0.21030000       0.13760000
   118  H          0.30070000       0.78970000       0.63760000
   119  H          0.69930000       0.28970000       0.86240000
   120  H          0.80070000       0.71030000       0.36240000
   121  O          0.34265160       0.33089900       0.20088900
   122  O          0.15734840       0.66910100       0.70088900
   123  O          0.84265160       0.16910100       0.79911100
   124  O          0.65734840       0.83089900       0.29911100
   125  O          0.31264160       0.40286900       0.52434900
   126  O          0.18735840       0.59713100       0.02434900
   127  O          0.81264160       0.09713100       0.47565100
   128  O          0.68735840       0.90286900       0.97565100
   129  C          0.24442000       0.93840120       0.18716120
   130  C          0.25558000       0.06159880       0.68716120
   131  C          0.74442000       0.56159880       0.81283880
   132  C          0.75558000       0.43840120       0.31283880
   133  C          0.23072000       0.91739130       0.28809120
   134  C          0.26928000       0.08260870       0.78809120
   135  C          0.73072000       0.58260870       0.71190880
   136  C          0.76928000       0.41739130       0.21190880
   137  H          0.23450000       0.84820000       0.29690000
   138  H          0.26550000       0.15180000       0.79690000
   139  H          0.73450000       0.65180000       0.70310000
   140  H          0.76550000       0.34820000       0.20310000
   141  C          0.07902000       0.95599150       0.33707130
   142  C          0.42098000       0.04400850       0.83707130
   143  C          0.57902000       0.54400850       0.66292870
   144  C          0.92098000       0.45599150       0.16292870
   145  H          0.04200000       0.01520000       0.30920000
   146  H          0.45800000       0.98480000       0.80920000
   147  H          0.54200000       0.48480000       0.69080000
   148  H          0.95800000       0.51520000       0.19080000
   149  H         -0.01200000       0.91050000       0.33590000
   150  H          0.51200000       0.08950000       0.83590000
   151  H          0.48800000       0.58950000       0.66410000
   152  H          0.01200000       0.41050000       0.16410000
   153  C          0.14122000       0.97152150       0.43456130
   154  C          0.35878000       0.02847850       0.93456130
   155  C          0.64122000       0.52847850       0.56543870
   156  C          0.85878000       0.47152150       0.06543870
   157  H          0.08580000       0.02530000       0.46350000
   158  H          0.41420000       0.97470000       0.96350000
   159  H          0.58580000       0.47470000       0.53650000
   160  H          0.91420000       0.52530000       0.03650000
   161  H          0.12410000       0.91530000       0.47260000
   162  H          0.37590000       0.08470000       0.97260000
   163  H          0.62410000       0.58470000       0.52740000
   164  H          0.87590000       0.41530000       0.02740000
   165  C          0.32102000      -0.00918870       0.42117130
   166  C          0.17898000       0.00918870       0.92117130
   167  C          0.82102000       0.50918870       0.57882870
   168  C          0.67898000       0.49081130       0.07882870
   169  N          0.36387180       0.95938120       0.33878100
   170  N          0.13612820       0.04061880       0.83878100
   171  N          0.86387180       0.54061880       0.66121900
   172  N          0.63612820       0.45938120       0.16121900
   173  H          0.46390000       0.96380000       0.31720000
   174  H          0.03610000       0.03620000       0.81720000
   175  H          0.96390000       0.53620000       0.68280000
   176  H          0.53610000       0.46380000       0.18280000
   177  O          0.10323160       0.93514100       0.14568900
   178  O          0.39676840       0.06485900       0.64568900
   179  O          0.60323160       0.56485900       0.85431100
   180  O          0.89676840       0.43514100       0.35431100
   181  H          0.11610000       0.94720000       0.09010000
   182  H          0.38390000       0.05280000       0.59010000
   183  H          0.61610000       0.55280000       0.90990000
   184  H          0.88390000       0.44720000       0.40990000
   185  O          0.37428150       0.95353100       0.14997900
   186  O          0.12571850       0.04646900       0.64997900
   187  O          0.87428150       0.54646900       0.85002100
   188  O          0.62571850       0.45353100       0.35002100
   189  O          0.41552170       0.02869110       0.47557900
   190  O          0.08447830       0.97130890       0.97557900
   191  O          0.91552170       0.47130890       0.52442100
   192  O          0.58447830       0.52869110       0.02442100
