data_LPYGLU08
_symmetry_space_group_name_H-M    'P1'
_symmetry_Int_Tables_number       1
loop_
_symmetry_equiv_pos_site_id
_symmetry_equiv_pos_as_xyz
1 x,y,z
_cell_length_a                   4.41357
_cell_length_b                   9.166214
_cell_length_c                   14.7532
_cell_angle_alpha                90.0
_cell_angle_beta                 90.0
_cell_angle_gamma                90.0
loop_
_atom_site_label
_atom_site_type_symbol
_atom_site_fract_x
_atom_site_fract_y
_atom_site_fract_z
     1  O          0.04797000       0.56974000       0.08205160
     2  O          0.45203000       0.43026000       0.58205160
     3  O          0.54797000       0.93026000       0.91794840
     4  O          0.95203000       0.06974000       0.41794840
     5  H         -0.01710000       0.56680000       0.13410000
     6  H          0.51710000       0.43320000       0.63410000
     7  H          0.48290000       0.93320000       0.86590000
     8  H          0.01710000       0.06680000       0.36590000
     9  O          0.61927000       0.36713000       0.74321140
    10  O          0.88073000       0.63287000       0.24321140
    11  O          0.11927000       0.13287000       0.25678860
    12  O          0.38073000       0.86713000       0.75678860
    13  O          0.73001000       0.38753000       0.06189160
    14  O          0.76999000       0.61247000       0.56189160
    15  O          0.23001000       0.11247000       0.93810840
    16  O          0.26999000       0.88753000       0.43810840
    17  C          0.88939000       0.58293000       0.79548190
    18  C          0.61061000       0.41707000       0.29548190
    19  C          0.38939000       0.91707000       0.20451810
    20  C          0.11061000       0.08293000       0.70451810
    21  H          0.73370000       0.65060000       0.77580000
    22  H          0.76630000       0.34940000       0.27580000
    23  H          0.23370000       0.84940000       0.22420000
    24  H          0.26630000       0.15060000       0.72420000
    25  H          0.05790000       0.58750000       0.75340000
    26  H          0.44210000       0.41250000       0.25340000
    27  H          0.55790000       0.91250000       0.24660000
    28  H          0.94210000       0.08750000       0.74660000
    29  C         -0.00819000       0.61754000       0.89062000
    30  C          0.50819000       0.38246000       0.39062000
    31  C          0.49181000       0.88246000       0.10938000
    32  C          0.00819000       0.11754000       0.60938000
    33  H          0.84190000       0.67630000       0.92190000
    34  H          0.65810000       0.32370000       0.42190000
    35  H          0.34190000       0.82370000       0.07810000
    36  H          0.15810000       0.17630000       0.57810000
    37  H          0.18270000       0.66990000       0.88990000
    38  H          0.31730000       0.33010000       0.38990000
    39  H          0.68270000       0.83010000       0.11010000
    40  H          0.81730000       0.16990000       0.61010000
    41  C          0.02837000       0.46923000       0.93685170
    42  C          0.47163000       0.53077000       0.43685170
    43  C          0.52837000       0.03077000       0.06314830
    44  C         -0.02837000       0.96923000       0.56314830
    45  H          0.24130000       0.43920000       0.93490000
    46  H          0.25870000       0.56080000       0.43490000
    47  H          0.74130000       0.06080000       0.06510000
    48  H          0.75870000       0.93920000       0.56510000
    49  C          0.91737000       0.46923000       0.03393180
    50  C          0.58263000       0.53077000       0.53393180
    51  C          0.41737000       0.03077000       0.96606820
    52  C          0.08263000       0.96923000       0.46606820
    53  C          0.76737000       0.43213000       0.80128150
    54  C          0.73263000       0.56787000       0.30128150
    55  C          0.26737000       0.06787000       0.19871850
    56  C          0.23263000       0.93213000       0.69871850
    57  N          0.85158000       0.37542000       0.88011140
    58  N          0.64842000       0.62458000       0.38011140
    59  N          0.35158000       0.12458000       0.11988860
    60  N          0.14842000       0.87542000       0.61988860
    61  H          0.80320000       0.28830000       0.89600000
    62  H          0.69680000       0.71170000       0.39600000
    63  H          0.30320000       0.21170000       0.10400000
    64  H          0.19680000       0.78830000       0.60400000
