data_LSERIN16
_symmetry_space_group_name_H-M    'P1'
_symmetry_Int_Tables_number       1
loop_
_symmetry_equiv_pos_site_id
_symmetry_equiv_pos_as_xyz
1 x,y,z
_cell_length_a                   6.90831
_cell_length_b                   9.6443
_cell_length_c                   5.61668
_cell_angle_alpha                90.0
_cell_angle_beta                 90.0
_cell_angle_gamma                90.0
loop_
_atom_site_label
_atom_site_type_symbol
_atom_site_fract_x
_atom_site_fract_y
_atom_site_fract_z
     1  C          0.14341400       0.21421200       0.95898900
     2  C          0.64341400       0.28578800       0.04101100
     3  C          0.85658600       0.71421200       0.54101100
     4  C          0.35658600       0.78578800       0.45898900
     5  C          0.09201100       0.25111300       0.21481300
     6  C          0.59201100       0.24888700       0.78518700
     7  C          0.90798900       0.75111300       0.28518700
     8  C          0.40798900       0.74888700       0.71481300
     9  C          0.12051000       0.40381400       0.26771700
    10  C          0.62051000       0.09618600       0.73228300
    11  C          0.87949000       0.90381400       0.23228300
    12  C          0.37949000       0.59618600       0.76771700
    13  N          0.21911100       0.16881800       0.37671300
    14  N          0.71911100       0.33118200       0.62328700
    15  N          0.78088900       0.66881800       0.12328700
    16  N          0.28088900       0.83118200       0.87671300
    17  O          0.21791000       0.09961400       0.92388900
    18  O          0.71791000       0.40038600       0.07611100
    19  O          0.78209000       0.59961400       0.57611100
    20  O          0.28209000       0.90038600       0.42388900
    21  O          0.10379000       0.30091400       0.79938700
    22  O          0.60379000       0.19908600       0.20061300
    23  O          0.89621000       0.80091400       0.70061300
    24  O          0.39621000       0.69908600       0.29938700
    25  O          0.32578000       0.43281800       0.27481400
    26  O          0.82578000       0.06718200       0.72518600
    27  O          0.67422000       0.93281800       0.22518600
    28  O          0.17422000       0.56718200       0.77481400
    29  H          0.95370000       0.22580000       0.24530000
    30  H          0.45370000       0.27420000       0.75470000
    31  H          0.04630000       0.72580000       0.25470000
    32  H          0.54630000       0.77420000       0.74530000
    33  H          0.06090000       0.42690000       0.42490000
    34  H          0.56090000       0.07310000       0.57510000
    35  H          0.93910000       0.92690000       0.07510000
    36  H          0.43910000       0.57310000       0.92490000
    37  H          0.05820000       0.46060000       0.14000000
    38  H          0.55820000       0.03940000       0.86000000
    39  H          0.94180000       0.96060000       0.36000000
    40  H          0.44180000       0.53940000       0.64000000
    41  H          0.34360000       0.19250000       0.35050000
    42  H          0.84360000       0.30750000       0.64950000
    43  H          0.65640000       0.69250000       0.14950000
    44  H          0.15640000       0.80750000       0.85050000
    45  H          0.18760000       0.18670000       0.52820000
    46  H          0.68760000       0.31330000       0.47180000
    47  H          0.81240000       0.68670000       0.97180000
    48  H          0.31240000       0.81330000       0.02820000
    49  H          0.20340000       0.07800000       0.34580000
    50  H          0.70340000       0.42200000       0.65420000
    51  H          0.79660000       0.57800000       0.15420000
    52  H          0.29660000       0.92200000       0.84580000
    53  H          0.33671900       0.51950000       0.33200000
    54  H          0.83671900       0.98050000       0.66800000
    55  H          0.66328100       0.01950000       0.16800000
    56  H          0.16328100       0.48050000       0.83200000
