data_LSERIN01
_symmetry_space_group_name_H-M    'P1'
_symmetry_Int_Tables_number       1
loop_
_symmetry_equiv_pos_site_id
_symmetry_equiv_pos_as_xyz
1 x,y,z
_cell_length_a                   8.5995
_cell_length_b                   9.3483
_cell_length_c                   5.6182
_cell_angle_alpha                90.0
_cell_angle_beta                 90.0
_cell_angle_gamma                90.0
loop_
_atom_site_label
_atom_site_type_symbol
_atom_site_fract_x
_atom_site_fract_y
_atom_site_fract_z
     1  C          0.11480000       0.19430000       0.85940000
     2  C          0.61480000       0.30570000       0.14060000
     3  C          0.88520000       0.69430000       0.64060000
     4  C          0.38520000       0.80570000       0.35940000
     5  C          0.08350000       0.24260000       0.11460000
     6  C          0.58350000       0.25740000       0.88540000
     7  C          0.91650000       0.74260000       0.38540000
     8  C          0.41650000       0.75740000       0.61460000
     9  C          0.08040000       0.40340000       0.13940000
    10  C          0.58040000       0.09660000       0.86060000
    11  C          0.91960000       0.90340000       0.36060000
    12  C          0.41960000       0.59660000       0.63940000
    13  H          0.98300000       0.20300000       0.16300000
    14  H          0.48300000       0.29700000       0.83700000
    15  H          0.01700000       0.70300000       0.33700000
    16  H          0.51700000       0.79700000       0.66300000
    17  H          0.05400000       0.42800000       0.32400000
    18  H          0.55400000       0.07200000       0.67600000
    19  H          0.94600000       0.92800000       0.17600000
    20  H          0.44600000       0.57200000       0.82400000
    21  H          0.00200000       0.44500000       0.02800000
    22  H          0.50200000       0.05500000       0.97200000
    23  H         -0.00200000       0.94500000       0.47200000
    24  H          0.49800000       0.55500000       0.52800000
    25  H          0.30300000       0.21600000       0.26700000
    26  H          0.80300000       0.28400000       0.73300000
    27  H          0.69700000       0.71600000       0.23300000
    28  H          0.19700000       0.78400000       0.76700000
    29  H          0.16200000       0.19200000       0.44900000
    30  H          0.66200000       0.30800000       0.55100000
    31  H          0.83800000       0.69200000       0.05100000
    32  H          0.33800000       0.80800000       0.94900000
    33  H          0.21400000       0.08000000       0.26200000
    34  H          0.71400000       0.42000000       0.73800000
    35  H          0.78600000       0.58000000       0.23800000
    36  H          0.28600000       0.92000000       0.76200000
    37  H          0.27400000       0.48800000       0.21200000
    38  H          0.77400000       0.01200000       0.78800000
    39  H          0.72600000      -0.01200000       0.28800000
    40  H          0.22600000       0.51200000       0.71200000
    41  N          0.20060000       0.18150000       0.28010000
    42  N          0.70060000       0.31850000       0.71990000
    43  N          0.79940000       0.68150000       0.21990000
    44  N          0.29940000       0.81850000       0.78010000
    45  O          0.22670000       0.11380000       0.82200000
    46  O          0.72670000       0.38620000       0.17800000
    47  O          0.77330000       0.61380000       0.67800000
    48  O          0.27330000       0.88620000       0.32200000
    49  O          0.02580000       0.24250000       0.70360000
    50  O          0.52580000       0.25750000       0.29640000
    51  O          0.97420000       0.74250000       0.79640000
    52  O          0.47420000       0.75750000       0.20360000
    53  O          0.22880000       0.46240000       0.07780000
    54  O          0.72880000       0.03760000       0.92220000
    55  O          0.77120000       0.96240000       0.42220000
    56  O          0.27120000       0.53760000       0.57780000
