data_LSERIN21
_symmetry_space_group_name_H-M    'P1'
_symmetry_Int_Tables_number       1
loop_
_symmetry_equiv_pos_site_id
_symmetry_equiv_pos_as_xyz
1 x,y,z
_cell_length_a                   5.61179
_cell_length_b                   6.5562
_cell_length_c                   9.532112
_cell_angle_alpha                90.0
_cell_angle_beta                 90.0
_cell_angle_gamma                90.0
loop_
_atom_site_label
_atom_site_type_symbol
_atom_site_fract_x
_atom_site_fract_y
_atom_site_fract_z
     1  C         -0.01520000       0.22530000       0.21791200
     2  C          0.51520000       0.77470000       0.71791200
     3  C          0.01520000       0.72530000       0.28208800
     4  C          0.48480000       0.27470000       0.78208800
     5  C          0.23320000       0.16030000       0.25211100
     6  C          0.26680000       0.83970000       0.75211100
     7  C          0.76680000       0.66030000       0.24788900
     8  C          0.73320000       0.33970000       0.74788900
     9  H          0.25140000       0.01470000       0.22980000
    10  H          0.24860000      -0.01470000       0.72980000
    11  H          0.74860000       0.51470000       0.27020000
    12  H          0.75140000       0.48530000       0.77020000
    13  C          0.29720000       0.19330000       0.40051200
    14  C          0.20280000       0.80670000       0.90051200
    15  C          0.70280000       0.69330000       0.09948800
    16  C          0.79720000       0.30670000       0.59948800
    17  H          0.17970000       0.13100000       0.46160000
    18  H          0.32030000       0.86900000       0.96160000
    19  H          0.82030000       0.63100000       0.03840000
    20  H          0.67970000       0.36900000       0.53840000
    21  H          0.45160000       0.13330000       0.42060000
    22  H          0.04840000       0.86670000       0.92060000
    23  H          0.54840000       0.63330000       0.07940000
    24  H          0.95160000       0.36670000       0.57940000
    25  N          0.40541400       0.27830000       0.16911000
    26  N          0.09458600       0.72170000       0.66911000
    27  N          0.59458600       0.77830000       0.33089000
    28  N          0.90541400       0.22170000       0.83089000
    29  H          0.55280000       0.23970000       0.19150000
    30  H          0.94720000       0.76030000       0.69150000
    31  H          0.44720000       0.73970000       0.30850000
    32  H          0.05280000       0.26030000       0.80850000
    33  H          0.38740000       0.41020000       0.18750000
    34  H          0.11260000       0.58980000       0.68750000
    35  H          0.61260000       0.91020000       0.31250000
    36  H          0.88740000       0.08980000       0.81250000
    37  H          0.38040000       0.25560000       0.07820000
    38  H          0.11960000       0.74440000       0.57820000
    39  H          0.61960000       0.75560000       0.42180000
    40  H          0.88040000       0.24440000       0.92180000
    41  O          0.94788800       0.30330000       0.10098000
    42  O          0.55211200       0.69670000       0.60098000
    43  O          0.05211200       0.80330000       0.39902000
    44  O          0.44788800       0.19670000       0.89902000
    45  O          0.82808500       0.18221900       0.30686000
    46  O          0.67191500       0.81778100       0.80686000
    47  O          0.17191500       0.68221900       0.19314000
    48  O          0.32808500       0.31778100       0.69314000
    49  O          0.30451800       0.40891800       0.42261100
    50  O          0.19548200       0.59108200       0.92261100
    51  O          0.69548200       0.90891800       0.07738900
    52  O          0.80451800       0.09108200       0.57738900
    53  H          0.31690000       0.43260000       0.50680000
    54  H          0.18310000       0.56740000       0.00680000
    55  H          0.68310000       0.93260000      -0.00680000
    56  H          0.81690000       0.06740000       0.49320000
