data_LTHREO06
_symmetry_space_group_name_H-M    'P1'
_symmetry_Int_Tables_number       1
loop_
_symmetry_equiv_pos_site_id
_symmetry_equiv_pos_as_xyz
1 x,y,z
_cell_length_a                   4.95569
_cell_length_b                   13.3224
_cell_length_c                   6.8742
_cell_angle_alpha                90.0
_cell_angle_beta                 90.0
_cell_angle_gamma                90.0
loop_
_atom_site_label
_atom_site_type_symbol
_atom_site_fract_x
_atom_site_fract_y
_atom_site_fract_z
     1  C          0.31859000       0.50404000       0.64648000
     2  C          0.18141000       0.49596000       0.14648000
     3  C          0.68141000       0.00404000       0.85352000
     4  C          0.81859000      -0.00404000       0.35352000
     5  O          0.50317000       0.56643000       0.67866000
     6  O         -0.00317000       0.43357000       0.17866000
     7  O          0.49683000       0.06643000       0.82134000
     8  O          0.00317000       0.93357000       0.32134000
     9  O          0.06997000       0.52123000       0.66197000
    10  O          0.43003000       0.47877000       0.16197000
    11  O          0.93003000       0.02123000       0.83803000
    12  O          0.56997000       0.97877000       0.33803000
    13  C          0.40491000       0.40154000       0.58348000
    14  C          0.09509000       0.59846000       0.08348000
    15  C          0.59509000       0.90154000       0.91652000
    16  C          0.90491000       0.09846000       0.41652000
    17  H          0.27430000       0.37620000       0.48820000
    18  H          0.22570000       0.62380000      -0.01180000
    19  H          0.72570000       0.87620000       0.01180000
    20  H          0.77430000       0.12380000       0.51180000
    21  N          0.67279000       0.40694000       0.48946000
    22  N          0.82721000       0.59306000      -0.01054000
    23  N          0.32721000       0.90694000       0.01054000
    24  N          0.17279000       0.09306000       0.51054000
    25  H          0.72320000       0.34580000       0.45220000
    26  H          0.77680000       0.65420000       0.95220000
    27  H          0.27680000       0.84580000       0.04780000
    28  H          0.22320000       0.15420000       0.54780000
    29  H          0.66370000       0.44700000       0.38600000
    30  H          0.83630000       0.55300000       0.88600000
    31  H          0.33630000       0.94700000       0.11400000
    32  H          0.16370000       0.05300000       0.61400000
    33  H          0.79250000       0.43130000       0.57350000
    34  H          0.70750000       0.56870000       0.07350000
    35  H          0.20750000       0.93130000       0.92650000
    36  H          0.29250000       0.06870000       0.42650000
    37  C          0.42081000       0.32735000       0.75138000
    38  C          0.07919000       0.67265000       0.25138000
    39  C          0.57919000       0.82735000       0.74862000
    40  C          0.92081000       0.17265000       0.24862000
    41  H          0.52900000       0.35580000       0.85710000
    42  H          0.97100000       0.64420000       0.35710000
    43  H          0.47100000       0.85580000       0.64290000
    44  H          0.02900000       0.14420000       0.14290000
    45  O          0.55477000       0.24223000       0.67167000
    46  O          0.94523000       0.75777000       0.17167000
    47  O          0.44523000       0.74223000       0.82833000
    48  O          0.05477000       0.25777000       0.32833000
    49  H          0.55710000       0.19680000       0.75220000
    50  H          0.94290000       0.80320000       0.25220000
    51  H          0.44290000       0.69680000       0.74780000
    52  H          0.05710000       0.30320000       0.24780000
    53  C          0.14851000       0.29795000       0.82641000
    54  C          0.35149000       0.70205000       0.32641000
    55  C          0.85149000       0.79795000       0.67359000
    56  C          0.64851000       0.20205000       0.17359000
    57  H          0.05990000       0.35580000       0.87980000
    58  H          0.44010000       0.64420000       0.37980000
    59  H          0.94010000       0.85580000       0.62020000
    60  H          0.55990000       0.14420000       0.12020000
    61  H          0.04220000       0.27120000       0.72180000
    62  H          0.45780000       0.72880000       0.22180000
    63  H          0.95780000       0.77120000       0.77820000
    64  H          0.54220000       0.22880000       0.27820000
    65  H          0.16870000       0.24780000       0.92580000
    66  H          0.33130000       0.75220000       0.42580000
    67  H          0.83130000       0.74780000       0.57420000
    68  H          0.66870000       0.25220000       0.07420000
