data_LTHREO18
_symmetry_space_group_name_H-M    'P1'
_symmetry_Int_Tables_number       1
loop_
_symmetry_equiv_pos_site_id
_symmetry_equiv_pos_as_xyz
1 x,y,z
_cell_length_a                   4.6796
_cell_length_b                   12.65913
_cell_length_c                   6.1439
_cell_angle_alpha                90.0
_cell_angle_beta                 91.423
_cell_angle_gamma                90.0
loop_
_atom_site_label
_atom_site_type_symbol
_atom_site_fract_x
_atom_site_fract_y
_atom_site_fract_z
     1  C          0.85730000       0.48591200       0.61480000
     2  C          0.14270000       0.98591200       0.38520000
     3  O          0.04720000       0.42081200       0.62760000
     4  O          0.95280000       0.92081200       0.37240000
     5  O          0.59620000       0.46591700       0.58680000
     6  O          0.40380000       0.96591700       0.41320000
     7  C          0.93830000       0.59691100       0.68550000
     8  C          0.06170000       0.09691100       0.31450000
     9  H          0.80960000       0.62180000       0.79820000
    10  H          0.19040000       0.12180000       0.20180000
    11  N          0.23320000       0.59301700       0.77050000
    12  N          0.76680000       0.09301700       0.22950000
    13  H          0.28670000       0.65720000       0.81340000
    14  H          0.71330000       0.15720000       0.18660000
    15  H          0.24390000       0.54860000       0.88210000
    16  H          0.75610000       0.04860000       0.11790000
    17  H          0.34700000       0.57080000       0.66560000
    18  H          0.65300000       0.07080000       0.33440000
    19  C          0.92230000       0.66991500       0.48750000
    20  C          0.07770000       0.16991500       0.51250000
    21  H         -0.00460000       0.63650000       0.35560000
    22  H          0.00460000       0.13650000       0.64440000
    23  C          0.61830000       0.71020000       0.45570000
    24  C          0.38170000       0.21020000       0.54430000
    25  H          0.49690000       0.65240000       0.40770000
    26  H          0.50310000       0.15240000       0.59230000
    27  H          0.55110000       0.73690000       0.59050000
    28  H          0.44890000       0.23690000       0.40950000
    29  H          0.61340000       0.76450000       0.34740000
    30  H          0.38660000       0.26450000       0.65260000
    31  O          0.09030000       0.75791100       0.55760000
    32  O          0.90970000       0.25791100       0.44240000
    33  H          0.08840000       0.80310000       0.46140000
    34  H          0.91160000       0.30310000       0.53860000
    35  C          0.64430000       0.50341200       0.12580000
    36  C          0.35570000       0.00341200       0.87420000
    37  O          0.45730000       0.56881300       0.14070000
    38  O          0.54270000       0.06881300       0.85930000
    39  O          0.89430000       0.52091400       0.06870000
    40  O          0.10570000       0.02091400       0.93130000
    41  C          0.55940000       0.39081200       0.17860000
    42  C          0.44060000       0.89081200       0.82140000
    43  H          0.69500000       0.35960000       0.28360000
    44  H          0.30500000       0.85960000       0.71640000
    45  N          0.27330000       0.39551600       0.26850000
    46  N          0.72670000       0.89551600       0.73150000
    47  H          0.21540000       0.33050000       0.30140000
    48  H          0.78460000       0.83050000       0.69860000
    49  H          0.27710000       0.43510000       0.38800000
    50  H          0.72290000       0.93510000       0.61200000
    51  H          0.15170000       0.42360000       0.17050000
    52  H          0.84830000       0.92360000       0.82950000
    53  C          0.54630000       0.32571600       0.96740000
    54  C          0.45370000       0.82571600       0.03260000
    55  H          0.45280000       0.36330000       0.84660000
    56  H          0.54720000       0.86330000       0.15340000
    57  C          0.84040000       0.28520000       0.91320000
    58  C          0.15960000       0.78520000       0.08680000
    59  H          0.95700000       0.34280000       0.86730000
    60  H          0.04300000       0.84280000       0.13270000
    61  H          0.92690000       0.25270000       0.04020000
    62  H          0.07310000       0.75270000       0.95980000
    63  H          0.82330000       0.23390000       0.79870000
    64  H          0.17670000       0.73390000       0.20130000
    65  O          0.39030000       0.23491200       0.03560000
    66  O          0.60970000       0.73491200       0.96440000
    67  H          0.34060000       0.20050000       0.92710000
    68  H          0.65940000       0.70050000       0.07290000
