data_LTHREO01
_symmetry_space_group_name_H-M    'P1'
_symmetry_Int_Tables_number       1
loop_
_symmetry_equiv_pos_site_id
_symmetry_equiv_pos_as_xyz
1 x,y,z
_cell_length_a                   13.6305
_cell_length_b                   7.7531
_cell_length_c                   5.1622
_cell_angle_alpha                90.0
_cell_angle_beta                 90.0
_cell_angle_gamma                90.0
loop_
_atom_site_label
_atom_site_type_symbol
_atom_site_fract_x
_atom_site_fract_y
_atom_site_fract_z
     1  C          0.49573000       0.18429000       0.29795000
     2  C         -0.00427000       0.31571000       0.70205000
     3  C          0.50427000       0.68429000       0.20205000
     4  C          0.00427000       0.81571000       0.79795000
     5  C          0.39841000       0.10618000       0.39202000
     6  C          0.89841000       0.39382000       0.60798000
     7  C          0.60159000       0.60618000       0.10798000
     8  C          0.10159000       0.89382000       0.89202000
     9  C          0.31803000       0.24203000       0.42954000
    10  C          0.81803000       0.25797000       0.57046000
    11  C          0.68197000       0.74203000       0.07046000
    12  C          0.18197000       0.75797000       0.92954000
    13  C          0.29085000       0.33628000       0.18309000
    14  C          0.79085000       0.16372000       0.81691000
    15  C          0.70915000       0.83628000       0.31691000
    16  C          0.20915000       0.66372000       0.68309000
    17  H          0.45110000       0.08990000       0.75690000
    18  H          0.95110000       0.41010000       0.24310000
    19  H          0.54890000       0.58990000       0.74310000
    20  H          0.04890000       0.91010000       0.25690000
    21  H          0.35870000      -0.01300000       0.73040000
    22  H          0.85870000       0.51300000       0.26960000
    23  H          0.64130000       0.48700000       0.76960000
    24  H          0.14130000       0.01300000       0.23040000
    25  H          0.44260000       0.91080000       0.60310000
    26  H          0.94260000       0.58920000       0.39690000
    27  H          0.55740000       0.41080000       0.89690000
    28  H          0.05740000       0.08920000       0.10310000
    29  H          0.37430000       0.02350000       0.26820000
    30  H          0.87430000       0.47650000       0.73180000
    31  H          0.62570000       0.52350000       0.23180000
    32  H          0.12570000       0.97650000       0.76820000
    33  H          0.33940000       0.33540000       0.55940000
    34  H          0.83940000       0.16460000       0.44060000
    35  H          0.66060000       0.83540000       0.94060000
    36  H          0.16060000       0.66460000       0.05940000
    37  H          0.19390000       0.20620000       0.54420000
    38  H          0.69390000       0.29380000       0.45580000
    39  H          0.80610000       0.70620000       0.95580000
    40  H          0.30610000       0.79380000       0.04420000
    41  H          0.23760000       0.41130000       0.21700000
    42  H          0.73760000       0.08870000       0.78300000
    43  H          0.76240000       0.91130000       0.28300000
    44  H          0.26240000       0.58870000       0.71700000
    45  H          0.34650000       0.41590000       0.12400000
    46  H          0.84650000       0.08410000       0.87600000
    47  H          0.65350000       0.91590000       0.37600000
    48  H          0.15350000       0.58410000       0.62400000
    49  H          0.27800000       0.25480000       0.03160000
    50  H          0.77800000       0.24520000       0.96840000
    51  H          0.72200000       0.75480000       0.46840000
    52  H          0.22200000       0.74520000       0.53160000
    53  N          0.41375000       0.01347000       0.64157000
    54  N          0.91375000       0.48653000       0.35843000
    55  N          0.58625000       0.51347000       0.85843000
    56  N          0.08625000      -0.01347000       0.14157000
    57  O          0.55791000       0.21681000       0.46725000
    58  O          0.05791000       0.28319000       0.53275000
    59  O          0.44209000       0.71681000       0.03275000
    60  O          0.94209000       0.78319000       0.96725000
    61  O          0.50284000       0.21132000       0.05940000
    62  O          0.00284000       0.28868000       0.94060000
    63  O          0.49716000       0.71132000       0.44060000
    64  O         -0.00284000       0.78868000       0.55940000
    65  O          0.23645000       0.14642000       0.52876000
    66  O          0.73645000       0.35358000       0.47124000
    67  O          0.76355000       0.64642000       0.97124000
    68  O          0.26355000       0.85358000       0.02876000
