data_LUBMOO02
_symmetry_space_group_name_H-M    'P1'
_symmetry_Int_Tables_number       1
loop_
_symmetry_equiv_pos_site_id
_symmetry_equiv_pos_as_xyz
1 x,y,z
_cell_length_a                   4.95862
_cell_length_b                   11.27094
_cell_length_c                   24.11908
_cell_angle_alpha                90.0
_cell_angle_beta                 95.6743
_cell_angle_gamma                90.0
loop_
_atom_site_label
_atom_site_type_symbol
_atom_site_fract_x
_atom_site_fract_y
_atom_site_fract_z
     1  O          0.72728000       0.51346110       0.45508500
     2  O          0.77272000       0.01346110       0.04491500
     3  O          0.27272000       0.48653890       0.54491500
     4  O          0.22728000       0.98653890       0.95508500
     5  O          0.61988000       0.34806110       0.49874500
     6  O          0.88012000       0.84806110       0.00125500
     7  O          0.38012000       0.65193890       0.50125500
     8  O          0.11988000       0.15193890      -0.00125500
     9  H          0.50781700       0.39416600       0.51140500
    10  H         -0.00781700       0.89416600       0.98859500
    11  H          0.49218300       0.60583400       0.48859500
    12  H          0.00781700       0.10583400       0.01140500
    13  F          0.54863000       0.94078110       0.32220500
    14  F          0.95137000       0.44078110       0.17779500
    15  F          0.45137000       0.05921890       0.67779500
    16  F          0.04863000       0.55921890       0.82220500
    17  F          0.56234000       0.87327130       0.40450500
    18  F          0.93766000       0.37327130       0.09549500
    19  F          0.43766000       0.12672870       0.59549500
    20  F          0.06234000       0.62672870       0.90450500
    21  F          0.90443000       0.85442130       0.35716800
    22  F          0.59557000       0.35442130       0.14283200
    23  F          0.09557000       0.14557870       0.64283200
    24  F          0.40443000       0.64557870       0.85716800
    25  N          0.08493000       0.49724140       0.37933600
    26  N          0.41507000      -0.00275860       0.12066400
    27  N          0.91507000       0.50275860       0.62066400
    28  N          0.58493000       0.00275860       0.87933600
    29  H          0.95535100       0.53828400       0.39284500
    30  H          0.54464900       0.03828400       0.10715500
    31  H          0.04464900       0.46171600       0.60715500
    32  H          0.45535100       0.96171600       0.89284500
    33  C          0.94287000       0.33158150       0.43414600
    34  C          0.55713000       0.83158150       0.06585400
    35  C          0.05713000       0.66841850       0.56585400
    36  C          0.44287000       0.16841850       0.93414600
    37  C          0.10363000       0.37960160       0.39401600
    38  C          0.39637000       0.87960160       0.10598400
    39  C          0.89637000       0.62039840       0.60598400
    40  C          0.60363000       0.12039840       0.89401600
    41  C          0.75607000       0.40575150       0.46284600
    42  C          0.74393000       0.90575150       0.03715400
    43  C          0.24393000       0.59424850       0.53715400
    44  C          0.25607000       0.09424850       0.96284600
    45  C          0.25083000       0.55954160       0.34493700
    46  C          0.24917000       0.05954160       0.15506300
    47  C          0.74917000       0.44045840       0.65506300
    48  C          0.75083000       0.94045840       0.84493700
    49  C          0.52553000       0.73237160       0.33133700
    50  C         -0.02553000       0.23237160       0.16866300
    51  C          0.47447000       0.26762840       0.66866300
    52  C          0.02553000       0.76762840       0.83133700
    53  C          0.58563000       0.69137160       0.27902700
    54  C          0.91437000       0.19137160       0.22097300
    55  C          0.41437000       0.30862840       0.72097300
    56  C          0.08563000       0.80862840       0.77902700
    57  C          0.28603000       0.30174170       0.37082700
    58  C          0.21397000       0.80174170       0.12917300
    59  C          0.71397000       0.69825830       0.62917300
    60  C          0.78603000       0.19825830       0.87082700
    61  H          0.40044100       0.33154500       0.34469500
    62  H          0.09955900       0.83154500       0.15530500
    63  H          0.59955900       0.66845500       0.65530500
    64  H          0.90044100       0.16845500       0.84469500
    65  C          0.36043000       0.66695160       0.36340700
    66  C          0.13957000       0.16695160       0.13659300
    67  C          0.63957000       0.33304840       0.63659300
    68  C          0.86043000       0.83304840       0.86340700
    69  H          0.32230500       0.69667000       0.39865100
    70  H          0.17769500       0.19667000       0.10134900
    71  H          0.67769500       0.30333000       0.60134900
    72  H          0.82230500       0.80333000       0.89865100
    73  C          0.29993000       0.52007170       0.29195700
    74  C          0.20007000       0.02007170       0.20804300
    75  C          0.70007000       0.47992830       0.70804300
    76  C          0.79993000       0.97992830       0.79195700
    77  H          0.21885600       0.44873400       0.27745600
    78  H          0.28114400       0.94873400       0.22254400
    79  H          0.78114400       0.55126600       0.72254400
    80  H          0.71885600       0.05126600       0.77745600
    81  C          0.46733000       0.58517170       0.26050700
    82  C          0.03267000       0.08517170       0.23949300
    83  C          0.53267000       0.41482830       0.73949300
    84  C          0.96733000       0.91482830       0.76050700
    85  H          0.50204400       0.55590400       0.22496400
    86  H         -0.00204400       0.05590400       0.27503600
    87  H          0.49795600       0.44409600       0.77503600
    88  H          0.00204400       0.94409600       0.72496400
    89  C          0.96326000       0.21051170       0.44765800
    90  C          0.53674000       0.71051170       0.05234200
    91  C          0.03674000       0.78948830       0.55234200
    92  C          0.46326000       0.28948830       0.94765800
    93  H          0.85377000       0.17904100       0.47428600
    94  H          0.64623000       0.67904100       0.02571400
    95  H          0.14623000       0.82095900       0.52571400
    96  H          0.35377000       0.32095900       0.97428600
    97  C          0.30094000       0.18405180       0.38530800
    98  C          0.19906000       0.68405180       0.11469200
    99  C          0.69906000       0.81594820       0.61469200
   100  C          0.80094000       0.31594820       0.88530800
   101  H          0.42549700       0.13408600       0.36895300
   102  H          0.07450300       0.63408600       0.13104700
   103  H          0.57450300       0.86591400       0.63104700
   104  H          0.92549700       0.36591400       0.86895300
   105  C          0.63514000       0.84792180       0.35405800
   106  C          0.86486000       0.34792180       0.14594200
   107  C          0.36486000       0.15207820       0.64594200
   108  C          0.13514000       0.65207820       0.85405800
   109  C          0.77254000       0.75539190       0.24287800
   110  C          0.72746000       0.25539190       0.25712200
   111  C          0.22746000       0.24460810       0.75712200
   112  C          0.27254000       0.74460810       0.74287800
   113  H          0.72062100       0.83919100       0.23966400
   114  H          0.77937900       0.33919100       0.26033600
   115  H          0.27937900       0.16080900       0.76033600
   116  H          0.22062100       0.66080900       0.73966400
   117  H          0.75783400       0.71925100       0.20573300
   118  H          0.74216600       0.21925100       0.29426700
   119  H          0.24216600       0.28074900       0.79426700
   120  H          0.25783400       0.78074900       0.70573300
   121  H          0.95985900       0.74909500       0.25983800
   122  H          0.54014100       0.24909500       0.24016200
   123  H          0.04014100       0.25090500       0.74016200
   124  H          0.45985900       0.75090500       0.75983800
   125  C          0.13804000       0.13621180       0.42332900
   126  C          0.36196000       0.63621180       0.07667100
   127  C          0.86196000       0.86378820       0.57667100
   128  C          0.63804000       0.36378820       0.92332900
   129  H          0.14686700       0.05415700       0.43231200
   130  H          0.35313300       0.55415700       0.06768800
   131  H          0.85313300       0.94584300       0.56768800
   132  H          0.64686700       0.44584300       0.93231200
