data_LUBMOO
_symmetry_space_group_name_H-M    'P1'
_symmetry_Int_Tables_number       1
loop_
_symmetry_equiv_pos_site_id
_symmetry_equiv_pos_as_xyz
1 x,y,z
_cell_length_a                   12.30912
_cell_length_b                   5.073401
_cell_length_c                   41.70534
_cell_angle_alpha                90.0
_cell_angle_beta                 90.0
_cell_angle_gamma                90.0
loop_
_atom_site_label
_atom_site_type_symbol
_atom_site_fract_x
_atom_site_fract_y
_atom_site_fract_z
     1  F          0.40653000       0.74135000       0.26722700
     2  F          0.59347000       0.25865000       0.76722700
     3  F          0.90653000       0.75865000       0.26722700
     4  F          0.09347000       0.24135000       0.76722700
     5  O          0.47972000       0.75965000       0.49877700
     6  O          0.52028000       0.24035000      -0.00122300
     7  O          0.97972000       0.74035000       0.49877700
     8  O          0.02028000       0.25965000      -0.00122300
     9  O          0.34512000       0.63585000       0.46610600
    10  O          0.65488000       0.36415000       0.96610600
    11  O          0.84512000       0.86415000       0.46610600
    12  O          0.15488000       0.13585000       0.96610600
    13  F          0.50992000       0.45866000       0.28920600
    14  F          0.49008000       0.54134000       0.78920600
    15  F          0.00992000       0.04134000       0.28920600
    16  F         -0.00992000       0.95866000       0.78920600
    17  F          0.52513000       0.86757000       0.30088700
    18  F          0.47487000       0.13243000       0.80088700
    19  F          0.02513000       0.63243000       0.30088700
    20  F          0.97487000       0.36757000       0.80088700
    21  N          0.34042000       0.84565000       0.40729600
    22  N          0.65958000       0.15435000       0.90729600
    23  N          0.84042000       0.65435000       0.40729600
    24  N          0.15958000       0.34565000       0.90729600
    25  H          0.29184900       0.80139000       0.42182800
    26  H          0.70815100       0.19861000       0.92182800
    27  H          0.79184900       0.69861000       0.42182800
    28  H          0.20815100       0.30139000       0.92182800
    29  C          0.39293000       0.77326000       0.35069900
    30  C          0.60707000       0.22674000       0.85069900
    31  C          0.89293000       0.72674000       0.35069900
    32  C          0.10707000       0.27326000       0.85069900
    33  H          0.45415200       0.88595400       0.35253500
    34  H          0.54584800       0.11404600       0.85253500
    35  H          0.95415200       0.61404600       0.35253500
    36  H          0.04584800       0.38595400       0.85253500
    37  C          0.42423000       0.77846000       0.47164900
    38  C          0.57577000       0.22154000       0.97164900
    39  C          0.92423000       0.72154000       0.47164900
    40  C          0.07577000       0.27846000       0.97164900
    41  C          0.32333000       0.74116000       0.37655100
    42  C          0.67667000       0.25884000       0.87655100
    43  C          0.82333000       0.75884000       0.37655100
    44  C          0.17667000       0.24116000       0.87655100
    45  C          0.46523000       0.21276000       0.39854900
    46  C          0.53477000       0.78724000       0.89854900
    47  C          0.96523000       0.28724000       0.39854900
    48  C          0.03477000       0.71276000       0.89854900
    49  H          0.43617500       0.24010800       0.37769500
    50  H          0.56382500       0.75989200       0.87769500
    51  H          0.93617500       0.25989200       0.37769500
    52  H          0.06382500       0.74010800       0.87769500
    53  C          0.42273000       0.00796000       0.41782800
    54  C          0.57727000      -0.00796000       0.91782800
    55  C          0.92273000       0.49204000       0.41782800
    56  C          0.07727000       0.50796000       0.91782800
    57  C          0.46482000      -0.01764000       0.44926700
    58  C          0.53518000       0.01764000       0.94926700
    59  C          0.96482000       0.51764000       0.44926700
    60  C          0.03518000       0.48236000       0.94926700
    61  C          0.45283000       0.67758000       0.29506900
    62  C          0.54717000       0.32242000       0.79506900
    63  C          0.95283000       0.82242000       0.29506900
    64  C          0.04717000       0.17758000       0.79506900
    65  C          0.54703000       0.37196000       0.40923800
    66  C          0.45297000       0.62804000       0.90923800
    67  C          0.04703000       0.12804000       0.40923800
    68  C          0.95297000       0.87196000       0.90923800
    69  H          0.57438500       0.50624700       0.39558500
    70  H          0.42561500       0.49375300       0.89558500
    71  H          0.07438500      -0.00624700       0.39558500
    72  H          0.92561500       0.00624700       0.89558500
    73  C          0.23403000       0.57417000       0.37277800
    74  C          0.76597000       0.42583000       0.87277800
    75  C          0.73403000       0.92583000       0.37277800
    76  C          0.26597000       0.07417000       0.87277800
    77  H          0.18424800       0.55269800       0.38999800
    78  H          0.81575200       0.44730200       0.88999800
    79  H          0.68424800       0.94730200       0.38999800
    80  H          0.31575200       0.05269800       0.88999800
    81  C          0.28583000       0.46807000       0.31793800
    82  C          0.71417000       0.53193000       0.81793800
    83  C          0.78583000       0.03193000       0.31793800
    84  C          0.21417000       0.96807000       0.81793800
    85  C          0.59123000       0.34087000       0.43994900
    86  C          0.40877000       0.65913000       0.93994900
    87  C          0.09123000       0.15913000       0.43994900
    88  C          0.90877000       0.84087000       0.93994900
    89  H          0.64895300       0.45017300       0.44707600
    90  H          0.35104700       0.54982700       0.94707600
    91  H          0.14895300       0.04982700       0.44707600
    92  H          0.85104700       0.95017300       0.94707600
    93  C          0.37313000       0.63996000       0.32183800
    94  C          0.62687000       0.36004000       0.82183800
    95  C          0.87313000       0.86004000       0.32183800
    96  C          0.12687000       0.13996000       0.82183800
    97  C          0.21663000       0.43957000       0.34442900
    98  C          0.78337000       0.56043000       0.84442900
    99  C          0.71663000       0.06043000       0.34442900
   100  C          0.28337000       0.93957000       0.84442900
   101  H          0.15597700       0.32426000       0.34283700
   102  H          0.84402300       0.67574000       0.84283700
   103  H          0.65597700       0.17574000       0.34283700
   104  H          0.34402300       0.82426000       0.84283700
   105  C          0.54883000       0.14736000       0.45961900
   106  C          0.45117000       0.85264000       0.95961900
   107  C          0.04883000       0.35264000       0.45961900
   108  C          0.95117000       0.64736000       0.95961900
   109  H          0.57739000       0.12582900       0.48060800
   110  H          0.42261000       0.87417100       0.98060800
   111  H          0.07739000       0.37417100       0.48060800
   112  H          0.92261000       0.62582900       0.98060800
   113  C          0.26234000       0.31369000       0.28768110
   114  C          0.73766000       0.68631000       0.78768110
   115  C          0.76234000       0.18631000       0.28768110
   116  C          0.23766000       0.81369000       0.78768110
   117  H          0.23094000       0.43136000       0.27151700
   118  H          0.76906000       0.56864000       0.77151700
   119  H          0.73094000       0.06864000       0.27151700
   120  H          0.26906000       0.93136000       0.77151700
   121  H          0.21085100       0.17166900       0.29247600
   122  H          0.78914900       0.82833100       0.79247600
   123  H          0.71085100       0.32833100       0.29247600
   124  H          0.28914900       0.67166900       0.79247600
   125  H          0.33004800       0.23787100       0.27944100
   126  H          0.66995200       0.76212900       0.77944100
   127  H          0.83004800       0.26212900       0.27944100
   128  H          0.16995200       0.73787100       0.77944100
   129  H          0.45640000       0.61011000       0.51131200
   130  H          0.54360000       0.38989000       0.01131200
   131  H          0.95640000       0.88989000       0.51131200
   132  H          0.04360000       0.11011000       0.01131200
   133  O          0.41062000       0.36155000       0.53405600
   134  O          0.58938000       0.63845000       0.03405600
   135  O          0.91062000       0.13845000       0.53405600
   136  O          0.08938000       0.86155000       0.03405600
   137  F          0.24232000       0.59355000       0.70962700
   138  F          0.75768000       0.40645000       0.20962700
   139  F          0.74232000       0.90645000       0.70962700
   140  F          0.25768000       0.09355000       0.20962700
   141  O          0.27713000       0.23775000       0.50151700
   142  O          0.72287000       0.76225000       0.00151700
   143  O          0.77713000       0.26225000       0.50151700
   144  O          0.22287000       0.73775000       0.00151700
   145  H          0.30017100       0.36699900       0.49095100
   146  H          0.69982900       0.63300100       0.99095100
   147  H          0.80017100       0.13300100       0.49095100
   148  H          0.19982900       0.86699900       0.99095100
   149  F          0.21923000       0.18576000       0.69841700
   150  F          0.78077000       0.81424000       0.19841700
   151  F          0.71923000       0.31424000       0.69841700
   152  F          0.28077000       0.68576000       0.19841700
   153  F          0.34103000       0.30196000       0.73223700
   154  F          0.65897000       0.69804000       0.23223700
   155  F          0.84103000       0.19804000       0.73223700
   156  F          0.15897000       0.80196000       0.23223700
   157  N          0.41372000       0.15726000       0.59320600
   158  N          0.58628000       0.84274000       0.09320600
   159  N          0.91372000       0.34274000       0.59320600
   160  N          0.08628000       0.65726000       0.09320600
   161  H          0.46321100       0.19641400       0.57876200
   162  H          0.53678900       0.80358600       0.07876200
   163  H          0.96321100       0.30358600       0.57876200
   164  H          0.03678900       0.69641400       0.07876200
   165  C          0.33153000       0.21916000       0.52861900
   166  C          0.66847000       0.78084000       0.02861900
   167  C          0.83153000       0.28084000       0.52861900
   168  C          0.16847000       0.71916000       0.02861900
   169  C          0.33093000      -0.00556000       0.58276700
   170  C          0.66907000       0.00556000       0.08276700
   171  C          0.83093000       0.50556000       0.58276700
   172  C          0.16907000       0.49444000       0.08276700
   173  C          0.28972000       0.01846000       0.55093800
   174  C          0.71028000      -0.01846000       0.05093800
   175  C          0.78972000       0.48154000       0.55093800
   176  C          0.21028000       0.51846000       0.05093800
   177  C          0.37633000       0.39216000       0.67750800
   178  C          0.62367000       0.60784000       0.17750800
   179  C          0.87633000       0.10784000       0.67750800
   180  C          0.12367000       0.89216000       0.17750800
   181  C          0.20653000       0.84944000       0.54064800
   182  C          0.79347000       0.15056000       0.04064800
   183  C          0.70653000       0.65056000       0.54064800
   184  C          0.29347000       0.34944000       0.04064800
   185  H          0.17899000       0.86641300       0.51945900
   186  H          0.82101000       0.13358700       0.01945900
   187  H          0.67899000       0.63358700       0.51945900
   188  H          0.32101000       0.36641300       0.01945900
   189  C          0.42973000       0.26906000       0.62379900
   190  C          0.57027000       0.73094000       0.12379900
   191  C          0.92973000       0.23094000       0.62379900
   192  C          0.07027000       0.76906000       0.12379900
   193  C          0.46393000       0.56317000       0.68076800
   194  C          0.53607000       0.43683000       0.18076800
   195  C          0.96393000       0.93683000       0.68076800
   196  C          0.03607000       0.06317000       0.18076800
   197  C          0.53553000       0.57747000       0.65471800
   198  C          0.46447000       0.42253000       0.15471800
   199  C          0.03553000       0.92253000       0.65471800
   200  C          0.96447000       0.07747000       0.15471800
   201  H          0.59716300       0.68933900       0.65615400
   202  H          0.40283700       0.31066100       0.15615400
   203  H          0.09716300       0.81066100       0.65615400
   204  H          0.90283700       0.18933900       0.15615400
   205  C          0.16393000       0.65923000       0.56062900
   206  C          0.83607000       0.34077000       0.06062900
   207  C          0.66393000       0.84077000       0.56062900
   208  C          0.33607000       0.15923000       0.06062900
   209  H          0.10632600       0.54909000       0.55351600
   210  H          0.89367400       0.45091000       0.05351600
   211  H          0.60632600       0.95091000       0.55351600
   212  H          0.39367400       0.04909000       0.05351600
   213  C          0.20633000       0.63114000       0.59133800
   214  C          0.79367000       0.36886000       0.09133800
   215  C          0.70633000       0.86886000       0.59133800
   216  C          0.29367000       0.13114000       0.09133800
   217  H          0.17852800       0.49758700       0.60502300
   218  H          0.82147200       0.50241300       0.10502300
   219  H          0.67852800       0.00241300       0.60502300
   220  H          0.32147200      -0.00241300       0.10502300
   221  C          0.28853000       0.79474000       0.60230900
   222  C          0.71147000       0.20526000       0.10230900
   223  C          0.78853000       0.70526000       0.60230900
   224  C          0.21147000       0.29474000       0.10230900
   225  H          0.31647700       0.77118700       0.62333600
   226  H          0.68352300       0.22881300       0.12333600
   227  H          0.81647700       0.72881300       0.62333600
   228  H          0.18352300       0.27118700       0.12333600
   229  C          0.51923000       0.43387000       0.62702800
   230  C          0.48077000       0.56613000       0.12702800
   231  C          0.01923000       0.06613000       0.62702800
   232  C          0.98077000       0.93387000       0.12702800
   233  H          0.56992800       0.44787500       0.60993200
   234  H          0.43007200       0.55212500       0.10993200
   235  H          0.06992800       0.05212500       0.60993200
   236  H          0.93007200       0.94787500       0.10993200
   237  C          0.35783000       0.24666000       0.64974100
   238  C          0.64217000       0.75334000       0.14974100
   239  C          0.85783000       0.25334000       0.64974100
   240  C          0.14217000       0.74666000       0.14974100
   241  H          0.29668400       0.13273900       0.64836500
   242  H          0.70331600       0.86726100       0.14836500
   243  H          0.79668400       0.36726100       0.64836500
   244  H          0.20331600       0.63273900       0.14836500
   245  C          0.48644000       0.72988000       0.71003110
   246  C          0.51356000       0.27012000       0.21003110
   247  C          0.98644000       0.77012000       0.71003110
   248  C          0.01356000       0.22988000       0.21003110
   249  H          0.41877300       0.75630000       0.72202000
   250  H          0.58122700       0.24370000       0.22202000
   251  H          0.91877300       0.74370000       0.72202000
   252  H          0.08122700       0.25630000       0.22202000
   253  H          0.51542400       0.90103900       0.70334700
   254  H          0.48457600       0.09896100       0.20334700
   255  H          0.01542400       0.59896100       0.70334700
   256  H          0.98457600       0.40103900       0.20334700
   257  H          0.53951900       0.64018700       0.72371700
   258  H          0.46048100       0.35981300       0.22371700
   259  H          0.03951900       0.85981300       0.72371700
   260  H          0.96048100       0.14018700       0.22371700
   261  C          0.29503000       0.36678000       0.70425900
   262  C          0.70497000       0.63322000       0.20425900
   263  C          0.79503000       0.13322000       0.70425900
   264  C          0.20497000       0.86678000       0.20425900
