data_LUBMOO01
_symmetry_space_group_name_H-M    'P1'
_symmetry_Int_Tables_number       1
loop_
_symmetry_equiv_pos_site_id
_symmetry_equiv_pos_as_xyz
1 x,y,z
_cell_length_a                   6.63555
_cell_length_b                   7.32345
_cell_length_c                   15.71831
_cell_angle_alpha                82.8225
_cell_angle_beta                 80.8356
_cell_angle_gamma                65.1367
loop_
_atom_site_label
_atom_site_type_symbol
_atom_site_fract_x
_atom_site_fract_y
_atom_site_fract_z
     1  O          0.13949190       0.08124170       0.92083800
     2  O          0.86050810       0.91875830       0.07916200
     3  O          0.27601190       0.79767830       0.00458800
     4  O          0.72398810       0.20232170      -0.00458800
     5  H          0.14166200       0.84081500       0.02647600
     6  H          0.85833800       0.15918500       0.97352400
     7  F          0.04092000       0.87967190       0.58804900
     8  F          0.95908000       0.12032810       0.41195100
     9  F          0.31042000       0.72112000       0.49384800
    10  F          0.68958000       0.27888000       0.50615200
    11  F          0.08543000       0.59012000       0.55555110
    12  F          0.91457000       0.40988000       0.44444890
    13  N          0.42412000       0.18062000       0.80666100
    14  N          0.57588000       0.81938000       0.19333900
    15  H          0.28515700       0.19309200       0.81973700
    16  H          0.71484300       0.80690800       0.18026300
    17  C          0.30163000       0.92838000       0.94284100
    18  C          0.69837000       0.07162000       0.05715900
    19  C          0.53223000       0.87728000       0.90318100
    20  C          0.46777000       0.12272000       0.09681900
    21  C          0.45733000       0.34102000       0.75524110
    22  C          0.54267000       0.65898000       0.24475890
    23  C          0.58763000       0.00742000       0.83812110
    24  C          0.41237000      -0.00742000       0.16187890
    25  C          0.33073000       0.43012000       0.68733120
    26  C          0.66927000       0.56988000       0.31266880
    27  H          0.23403500       0.37574200       0.67310900
    28  H          0.76596500       0.62425800       0.32689100
    29  C          0.34463000       0.59902000       0.63992110
    30  C          0.65537000       0.40098000       0.36007890
    31  C          0.70333000       0.69678000       0.93119110
    32  C          0.29667000       0.30322000       0.06880890
    33  H          0.66593300       0.60966400       0.97446200
    34  H          0.33406700       0.39033600       0.02553800
    35  C          0.60043000       0.41952000       0.77406120
    36  C          0.39957000       0.58048000       0.22593880
    37  H          0.68811800       0.35990400       0.82043900
    38  H          0.31188200       0.64009600       0.17956100
    39  C          0.97733000       0.77278000       0.83429120
    40  C          0.02267000       0.22722000       0.16570880
    41  H          0.12934300       0.73850900       0.81161600
    42  H          0.87065700       0.26149100       0.18838400
    43  C          0.48773000       0.68092000       0.65784120
    44  C          0.51227000       0.31908000       0.34215880
    45  C          0.81423000       0.94898000       0.80438120
    46  C          0.18577000       0.05102000       0.19561880
    47  H          0.85494700       0.03260300       0.76025600
    48  H          0.14505300       0.96739700       0.23974400
    49  C          0.92273000       0.64388000       0.89742120
    50  C          0.07727000       0.35612000       0.10257880
    51  H          0.03600000       0.52113000       0.91678500
    52  H          0.96400000       0.47887000       0.08321500
    53  C          0.61573000       0.58553000       0.72506130
    54  C          0.38427000       0.41447000       0.27493870
    55  H          0.71736900       0.63566900       0.73797100
    56  H          0.28263100       0.36433100       0.26202900
    57  C          0.19753000       0.69533000       0.56944130
    58  C          0.80247000       0.30467000       0.43055870
    59  C          0.50884000       0.86463000       0.60909160
    60  C          0.49116000       0.13537000       0.39090840
    61  H          0.58735200       0.82962000       0.55118200
    62  H          0.41264800       0.17038000       0.44881800
    63  H          0.59340000       0.91123400       0.64014300
    64  H          0.40660000       0.08876600       0.35985700
    65  H          0.35940800       0.97197400       0.60430800
    66  H          0.64059200       0.02802600       0.39569200
