data_MABZNA02
_symmetry_space_group_name_H-M    'P1'
_symmetry_Int_Tables_number       1
loop_
_symmetry_equiv_pos_site_id
_symmetry_equiv_pos_as_xyz
1 x,y,z
_cell_length_a                   3.9891
_cell_length_b                   10.6211
_cell_length_c                   31.9322
_cell_angle_alpha                90.0
_cell_angle_beta                 95.101
_cell_angle_gamma                90.0
loop_
_atom_site_label
_atom_site_type_symbol
_atom_site_fract_x
_atom_site_fract_y
_atom_site_fract_z
     1  O          0.85460000       0.11100000       0.68340000
     2  O          0.14540000       0.61100000       0.81660000
     3  O          0.14540000       0.88900000       0.31660000
     4  O          0.85460000       0.38900000       0.18340000
     5  O          0.05830000       0.29670000       0.69030000
     6  O          0.94170000       0.79670000       0.80970000
     7  O          0.94170000       0.70330000       0.30970000
     8  O          0.05830000       0.20330000       0.19030000
     9  N          0.26260000       0.19300000       0.50020000
    10  N          0.73740000       0.69300000      -0.00020000
    11  N          0.73740000       0.80700000       0.49980000
    12  N          0.26260000       0.30700000       0.00020000
    13  N         -0.01200000       0.20310000       0.66950000
    14  N          0.01200000       0.70310000       0.83050000
    15  N          0.01200000       0.79690000       0.33050000
    16  N         -0.01200000       0.29690000       0.16950000
    17  N          0.50730000       0.30230000       0.30670000
    18  N          0.49270000       0.80230000       0.19330000
    19  N          0.49270000       0.69770000       0.69330000
    20  N          0.50730000       0.19770000       0.80670000
    21  C          0.06370000       0.20070000       0.62550000
    22  C          0.93630000       0.70070000       0.87450000
    23  C          0.93630000       0.79930000       0.37450000
    24  C          0.06370000       0.29930000       0.12550000
    25  C          0.22730000       0.30240000       0.60990000
    26  C          0.77270000       0.80240000       0.89010000
    27  C          0.77270000       0.69760000       0.39010000
    28  C          0.22730000       0.19760000       0.10990000
    29  C          0.29060000       0.30210000       0.56800000
    30  C          0.70940000       0.80210000       0.93200000
    31  C          0.70940000       0.69790000       0.43200000
    32  C          0.29060000       0.19790000       0.06800000
    33  C          0.18850000       0.20000000       0.54210000
    34  C          0.81150000       0.70000000       0.95790000
    35  C          0.81150000       0.80000000       0.45790000
    36  C          0.18850000       0.30000000       0.04210000
    37  C          0.02990000       0.09820000       0.55940000
    38  C         -0.02990000       0.59820000       0.94060000
    39  C         -0.02990000       0.90180000       0.44060000
    40  C          0.02990000       0.40180000       0.05940000
    41  C         -0.03610000       0.09810000       0.60060000
    42  C          0.03610000       0.59810000       0.89940000
    43  C          0.03610000       0.90190000       0.39940000
    44  C         -0.03610000       0.40190000       0.10060000
    45  C          0.21870000       0.29030000       0.47660000
    46  C          0.78130000       0.79030000       0.02340000
    47  C          0.78130000       0.70970000       0.52340000
    48  C          0.21870000       0.20970000       0.97660000
    49  C          0.30550000       0.29380000       0.43360000
    50  C          0.69450000       0.79380000       0.06640000
    51  C          0.69450000       0.70620000       0.56640000
    52  C          0.30550000       0.20620000       0.93360000
    53  C          0.21450000       0.39730000       0.40810000
    54  C          0.78550000       0.89730000       0.09190000
    55  C          0.78550000       0.60270000       0.59190000
    56  C          0.21450000       0.10270000       0.90810000
    57  C          0.27880000       0.40130000       0.36630000
    58  C          0.72120000       0.90130000       0.13370000
    59  C          0.72120000       0.59870000       0.63370000
    60  C          0.27880000       0.09870000       0.86630000
    61  C          0.44020000       0.30110000       0.34810000
    62  C          0.55980000       0.80110000       0.15190000
    63  C          0.55980000       0.69890000       0.65190000
    64  C          0.44020000       0.19890000       0.84810000
    65  C          0.53280000       0.19570000       0.37390000
    66  C          0.46720000       0.69570000       0.12610000
    67  C          0.46720000       0.80430000       0.62610000
    68  C          0.53280000       0.30430000       0.87390000
    69  C          0.46970000       0.19380000       0.41540000
    70  C          0.53030000       0.69380000       0.08460000
    71  C          0.53030000       0.80620000       0.58460000
    72  C          0.46970000       0.30620000       0.91540000
    73  C          0.42290000       0.41260000       0.28060000
    74  C          0.57710000       0.91260000       0.21940000
    75  C          0.57710000       0.58740000       0.71940000
    76  C          0.42290000       0.08740000       0.78060000
    77  C          0.64040000       0.19240000       0.28720000
    78  C          0.35960000       0.69240000       0.21280000
    79  C          0.35960000       0.80760000       0.71280000
    80  C          0.64040000       0.30760000       0.78720000
    81  H          0.29200000       0.37700000       0.62600000
    82  H          0.70800000       0.87700000       0.87400000
    83  H          0.70800000       0.62300000       0.37400000
    84  H          0.29200000       0.12300000       0.12600000
    85  H          0.40800000       0.37700000       0.55500000
    86  H          0.59200000       0.87700000       0.94500000
    87  H          0.59200000       0.62300000       0.44500000
    88  H          0.40800000       0.12300000       0.05500000
    89  H          0.95000000       0.02700000       0.53800000
    90  H          0.05000000       0.52700000       0.96200000
    91  H          0.05000000       0.97300000       0.46200000
    92  H          0.95000000       0.47300000       0.03800000
    93  H          0.89200000       0.01700000       0.61700000
    94  H          0.10800000       0.51700000       0.88300000
    95  H          0.10800000       0.98300000       0.38300000
    96  H          0.89200000       0.48300000       0.11700000
    97  H          0.11700000       0.38000000       0.48800000
    98  H          0.88300000       0.88000000       0.01200000
    99  H          0.88300000       0.62000000       0.51200000
   100  H          0.11700000       0.12000000       0.98800000
   101  H          0.09200000       0.47700000       0.41900000
   102  H          0.90800000       0.97700000       0.08100000
   103  H          0.90800000       0.52300000       0.58100000
   104  H          0.09200000       0.02300000       0.91900000
   105  H          0.19200000       0.49000000       0.35000000
   106  H          0.80800000      -0.01000000       0.15000000
   107  H          0.80800000       0.51000000       0.65000000
   108  H          0.19200000       0.01000000       0.85000000
   109  H          0.65000000       0.11700000       0.36300000
   110  H          0.35000000       0.61700000       0.13700000
   111  H          0.35000000       0.88300000       0.63700000
   112  H          0.65000000       0.38300000       0.86300000
   113  H          0.52500000       0.12000000       0.43300000
   114  H          0.47500000       0.62000000       0.06700000
   115  H          0.47500000       0.88000000       0.56700000
   116  H          0.52500000       0.38000000       0.93300000
   117  H          0.50000000       0.51300000       0.29500000
   118  H          0.50000000       0.01300000       0.20500000
   119  H          0.50000000       0.48700000       0.70500000
   120  H          0.50000000      -0.01300000       0.79500000
   121  H          0.15800000       0.42000000       0.27600000
   122  H          0.84200000       0.92000000       0.22400000
   123  H          0.84200000       0.58000000       0.72400000
   124  H          0.15800000       0.08000000       0.77600000
   125  H          0.51700000       0.39000000       0.24800000
   126  H          0.48300000       0.89000000       0.25200000
   127  H          0.48300000       0.61000000       0.75200000
   128  H          0.51700000       0.11000000       0.74800000
   129  H          0.49200000       0.11000000       0.29000000
   130  H          0.50800000       0.61000000       0.21000000
   131  H          0.50800000       0.89000000       0.71000000
   132  H          0.49200000       0.39000000       0.79000000
   133  H          0.85800000       0.15700000       0.30200000
   134  H          0.14200000       0.65700000       0.19800000
   135  H          0.14200000       0.84300000       0.69800000
   136  H          0.85800000       0.34300000       0.80200000
   137  H          0.63300000       0.20700000       0.25800000
   138  H          0.36700000       0.70700000       0.24200000
   139  H          0.36700000       0.79300000       0.74200000
   140  H          0.63300000       0.29300000       0.75800000
