data_MABZNA01
_symmetry_space_group_name_H-M    'P1'
_symmetry_Int_Tables_number       1
loop_
_symmetry_equiv_pos_site_id
_symmetry_equiv_pos_as_xyz
1 x,y,z
_cell_length_a                   7.5071
_cell_length_b                   16.7041
_cell_length_c                   11.0511
_cell_angle_alpha                92.791
_cell_angle_beta                 90.301
_cell_angle_gamma                96.581
loop_
_atom_site_label
_atom_site_type_symbol
_atom_site_fract_x
_atom_site_fract_y
_atom_site_fract_z
     1  O          0.78650000       0.84960000       0.01790000
     2  O          0.21350000       0.15040000       0.98210000
     3  O          0.64220000       0.84200000       0.18510000
     4  O          0.35780000       0.15800000       0.81490000
     5  N          0.72520000       0.47580000       0.06790000
     6  N          0.27480000       0.52420000       0.93210000
     7  N          0.71760000       0.81080000       0.10110000
     8  N          0.28240000       0.18920000       0.89890000
     9  N          0.80390000       0.10100000       0.13070000
    10  N          0.19610000       0.89900000       0.86930000
    11  C          0.72140000       0.72410000       0.09510000
    12  C          0.27860000       0.27590000       0.90490000
    13  C          0.64520000       0.67930000       0.18760000
    14  C          0.35480000       0.32070000       0.81240000
    15  C          0.64620000       0.59690000       0.18100000
    16  C          0.35380000       0.40310000       0.81900000
    17  C          0.72330000       0.55910000       0.08130000
    18  C          0.27670000       0.44090000       0.91870000
    19  C          0.79460000       0.60630000      -0.01240000
    20  C          0.20540000       0.39370000       0.01240000
    21  C          0.79760000       0.68770000      -0.00540000
    22  C          0.20240000       0.31230000       0.00540000
    23  C          0.77270000       0.43690000       0.15750000
    24  C          0.22730000       0.56310000       0.84250000
    25  C          0.77390000       0.35090000       0.15290000
    26  C          0.22610000       0.64910000       0.84710000
    27  C          0.85190000       0.31250000       0.24520000
    28  C          0.14810000       0.68750000       0.75480000
    29  C          0.86360000       0.23120000       0.23930000
    30  C          0.13640000       0.76880000       0.76070000
    31  C          0.79460000       0.18230000       0.13850000
    32  C          0.20540000       0.81770000       0.86150000
    33  C          0.71300000       0.22090000       0.04570000
    34  C          0.28700000       0.77910000       0.95430000
    35  C          0.70360000       0.30220000       0.05230000
    36  C          0.29640000       0.69780000       0.94770000
    37  C          0.90060000       0.06290000       0.22000000
    38  C          0.09940000       0.93710000       0.78000000
    39  C          0.74760000       0.05450000       0.01830000
    40  C          0.25240000       0.94550000       0.98170000
    41  H          0.55500000       0.70000000       0.25700000
    42  H          0.44500000       0.30000000       0.74300000
    43  H          0.55500000       0.55200000       0.24700000
    44  H          0.44500000       0.44800000       0.75300000
    45  H          0.89500000       0.57800000       0.92000000
    46  H          0.10500000       0.42200000       0.08000000
    47  H          0.90500000       0.72400000       0.93300000
    48  H          0.09500000       0.27600000       0.06700000
    49  H          0.87500000       0.47200000       0.22000000
    50  H          0.12500000       0.52800000       0.78000000
    51  H          0.93000000       0.34800000       0.31300000
    52  H          0.07000000       0.65200000       0.68700000
    53  H          0.96000000       0.21000000       0.31000000
    54  H          0.04000000       0.79000000       0.69000000
    55  H          0.61500000       0.18600000       0.97700000
    56  H          0.38500000       0.81400000       0.02300000
    57  H          0.58500000       0.32800000      -0.00300000
    58  H          0.41500000       0.67200000       0.00300000
    59  H          0.85000000       0.07000000       0.30000000
    60  H          0.15000000       0.93000000       0.70000000
    61  H          0.93500000       0.02000000       0.20000000
    62  H          0.06500000       0.98000000       0.80000000
    63  H          0.03000000       0.07400000       0.23300000
    64  H          0.97000000       0.92600000       0.76700000
    65  H          0.77500000       0.01200000       0.03300000
    66  H          0.22500000       0.98800000       0.96700000
    67  H          0.60000000       0.05600000       0.01000000
    68  H          0.40000000       0.94400000      -0.01000000
    69  H          0.87500000       0.08000000       0.96700000
    70  H          0.12500000       0.92000000       0.03300000
    71  O          0.11940000       0.85870000       0.27170000
    72  O          0.88060000       0.14130000       0.72830000
    73  O          0.25510000       0.87150000       0.44300000
    74  O          0.74490000       0.12850000       0.55700000
    75  N          0.26330000       0.50050000       0.32830000
    76  N          0.73670000       0.49950000       0.67170000
    77  N          0.19810000       0.83140000       0.35460000
    78  N          0.80190000       0.16860000       0.64540000
    79  N          0.31450000       0.12400000       0.40660000
    80  N          0.68550000       0.87600000       0.59340000
    81  C          0.21280000       0.74520000       0.34890000
    82  C          0.78720000       0.25480000       0.65110000
    83  C          0.28840000       0.71220000       0.44720000
    84  C          0.71160000       0.28780000       0.55280000
    85  C          0.30240000       0.63130000       0.44320000
    86  C          0.69760000       0.36870000       0.55680000
    87  C          0.24140000       0.58220000       0.34100000
    88  C          0.75860000       0.41780000       0.65900000
    89  C          0.16800000       0.61760000       0.24280000
    90  C          0.83200000       0.38240000       0.75720000
    91  C          0.15130000       0.69820000       0.24770000
    92  C          0.84870000       0.30180000       0.75230000
    93  C          0.22860000       0.45520000       0.41730000
    94  C          0.77140000       0.54480000       0.58270000
    95  C          0.25740000       0.37110000       0.41410000
    96  C          0.74260000       0.62890000       0.58590000
    97  C          0.19690000       0.32280000       0.50890000
    98  C          0.80310000       0.67720000       0.49110000
    99  C          0.21630000       0.24260000       0.50770000
   100  C          0.78370000       0.75740000       0.49230000
   101  C          0.29860000       0.20400000       0.40900000
   102  C          0.70140000       0.79600000       0.59100000
   103  C          0.36290000       0.25350000       0.31310000
   104  C          0.63710000       0.74650000       0.68690000
   105  C          0.34260000       0.33390000       0.31730000
   106  C          0.65740000       0.66610000       0.68270000
   107  C          0.25540000       0.07510000       0.50870000
   108  C          0.74460000       0.92490000       0.49130000
   109  C          0.40810000       0.08530000       0.31000000
   110  C          0.59190000       0.91470000       0.69000000
   111  H          0.39500000       0.74800000       0.51300000
   112  H          0.60500000       0.25200000       0.48700000
   113  H          0.41000000       0.61200000       0.50300000
   114  H          0.59000000       0.38800000       0.49700000
   115  H          0.07000000       0.57400000       0.18000000
   116  H          0.93000000       0.42600000       0.82000000
   117  H          0.05500000       0.71600000       0.19000000
   118  H          0.94500000       0.28400000       0.81000000
   119  H          0.11500000       0.47200000       0.49000000
   120  H          0.88500000       0.52800000       0.51000000
   121  H          0.08500000       0.35000000       0.58000000
   122  H          0.91500000       0.65000000       0.42000000
   123  H          0.12000000       0.20800000       0.57700000
   124  H          0.88000000       0.79200000       0.42300000
   125  H          0.46500000       0.23200000       0.24700000
   126  H          0.53500000       0.76800000       0.75300000
   127  H          0.43500000       0.37000000       0.25000000
   128  H          0.56500000       0.63000000       0.75000000
   129  H          0.40000000       0.10000000       0.56700000
   130  H          0.60000000       0.90000000       0.43300000
   131  H          0.10000000       0.08000000       0.52700000
   132  H          0.90000000       0.92000000       0.47300000
   133  H          0.27500000       0.02000000       0.50000000
   134  H          0.72500000       0.98000000       0.50000000
   135  H          0.40000000       0.03800000       0.31700000
   136  H          0.60000000       0.96200000       0.68300000
   137  H          0.36500000       0.10000000       0.23300000
   138  H          0.63500000       0.90000000       0.76700000
   139  H          0.55000000       0.12000000       0.30700000
   140  H          0.45000000       0.88000000       0.69300000
