data_MABZNA
_symmetry_space_group_name_H-M    'P1'
_symmetry_Int_Tables_number       1
loop_
_symmetry_equiv_pos_site_id
_symmetry_equiv_pos_as_xyz
1 x,y,z
_cell_length_a                   9.5091
_cell_length_b                   16.2001
_cell_length_c                   9.5051
_cell_angle_alpha                91.691
_cell_angle_beta                 107.521
_cell_angle_gamma                101.041
loop_
_atom_site_label
_atom_site_type_symbol
_atom_site_fract_x
_atom_site_fract_y
_atom_site_fract_z
     1  C          0.78990000       0.24360000       0.92750000
     2  C          0.21010000       0.75640000       0.07250000
     3  C          0.58480000       0.73830000       0.00480000
     4  C          0.41520000       0.26170000      -0.00480000
     5  C          0.72010000       0.79250000       0.09060000
     6  C          0.27990000       0.20750000       0.90940000
     7  C          0.85050000       0.75850000       0.13840000
     8  C          0.14950000       0.24150000       0.86160000
     9  C          0.84550000       0.67460000       0.10440000
    10  C          0.15450000       0.32540000       0.89560000
    11  C          0.59330000       0.91240000       0.07660000
    12  C          0.40670000       0.08760000       0.92340000
    13  C          0.86850000       0.93210000       0.20400000
    14  C          0.13150000       0.06790000       0.79600000
    15  C          0.73780000       0.29360000       0.81570000
    16  C          0.26220000       0.70640000       0.18430000
    17  C          0.74410000       0.37730000       0.85330000
    18  C          0.25590000       0.62270000       0.14670000
    19  C          0.80230000       0.41040000       0.00200000
    20  C          0.19770000       0.58960000      -0.00200000
    21  C          0.85680000       0.35870000       0.11150000
    22  C          0.14320000       0.64130000       0.88850000
    23  C          0.84990000       0.27490000       0.07460000
    24  C          0.15010000       0.72510000       0.92540000
    25  C          0.70480000       0.53140000      -0.01480000
    26  C          0.29520000       0.46860000       0.01480000
    27  C          0.71130000       0.62050000       0.02040000
    28  C          0.28870000       0.37950000       0.97960000
    29  C          0.58290000       0.65430000       0.97090000
    30  C          0.41710000       0.34570000       0.02910000
    31  H          0.48100000       0.76000000       0.96100000
    32  H          0.51900000       0.24000000       0.03900000
    33  H          0.95600000       0.79700000       0.20600000
    34  H          0.04400000       0.20300000       0.79400000
    35  H          0.94600000       0.64600000       0.14400000
    36  H          0.05400000       0.35400000       0.85600000
    37  H          0.61600000       0.97100000       0.09900000
    38  H          0.38400000       0.02900000       0.90100000
    39  H          0.55500000       0.91100000       0.96300000
    40  H          0.44500000       0.08900000       0.03700000
    41  H          0.49800000       0.87200000       0.09800000
    42  H          0.50200000       0.12800000       0.90200000
    43  H          0.85900000       0.98000000       0.22200000
    44  H          0.14100000       0.02000000       0.77800000
    45  H          0.95900000       0.93200000       0.14300000
    46  H          0.04100000       0.06800000       0.85700000
    47  H          0.92300000       0.91100000       0.30900000
    48  H          0.07700000       0.08900000       0.69100000
    49  H          0.69100000       0.26500000       0.69900000
    50  H          0.30900000       0.73500000       0.30100000
    51  H          0.70500000       0.41700000       0.76500000
    52  H          0.29500000       0.58300000       0.23500000
    53  H          0.90600000       0.38900000       0.22700000
    54  H          0.09400000       0.61100000       0.77300000
    55  H          0.89000000       0.23300000       0.15000000
    56  H          0.11000000       0.76700000       0.85000000
    57  H          0.59600000       0.49100000       0.89700000
    58  H          0.40400000       0.50900000       0.10300000
    59  H          0.48000000       0.61600000       0.91300000
    60  H          0.52000000       0.38400000       0.08700000
    61  N          0.81340000       0.49520000       0.04560000
    62  N          0.18660000       0.50480000       0.95440000
    63  N          0.78490000       0.15490000       0.88580000
    64  N          0.21510000       0.84510000       0.11420000
    65  N          0.72510000       0.87590000       0.12710000
    66  N          0.27490000       0.12410000       0.87290000
    67  O          0.82780000       0.11080000      -0.01480000
    68  O          0.17220000       0.88920000       0.01480000
    69  O          0.74130000       0.12920000       0.75540000
    70  O          0.25870000       0.87080000       0.24460000
    71  C          0.34270000       0.24720000       0.56660000
    72  C          0.65730000       0.75280000       0.43340000
    73  C          0.28470000       0.21340000       0.41760000
    74  C          0.71530000       0.78660000       0.58240000
    75  C          0.22020000       0.76430000       0.57710000
    76  C          0.77980000       0.23570000       0.42290000
    77  C          0.22910000       0.26850000       0.30990000
    78  C          0.77090000       0.73150000       0.69010000
    79  C          0.23260000       0.35070000       0.35080000
    80  C          0.76740000       0.64930000       0.64920000
    81  C          0.34210000       0.07620000       0.48610000
    82  C          0.65790000       0.92380000       0.51390000
    83  C          0.20950000       0.09610000       0.22460000
    84  C          0.79050000       0.90390000       0.77540000
    85  C          0.35540000       0.73920000       0.62030000
    86  C          0.64460000       0.26080000       0.37970000
    87  C          0.35790000       0.65620000       0.58220000
    88  C          0.64210000       0.34380000       0.41780000
    89  C          0.22450000       0.60050000       0.50250000
    90  C          0.77550000       0.39950000       0.49750000
    91  C          0.08850000       0.62840000       0.45840000
    92  C          0.91150000       0.37160000       0.54160000
    93  C          0.08550000       0.71070000       0.49810000
    94  C          0.91450000       0.28930000       0.50190000
    95  C          0.28650000       0.46940000       0.54460000
    96  C          0.71350000       0.53060000       0.45540000
    97  C          0.29040000       0.38390000       0.50000000
    98  C          0.70960000       0.61610000       0.50000000
    99  C          0.34410000       0.33030000       0.60510000
   100  C          0.65590000       0.66970000       0.39490000
   101  H          0.38400000       0.20900000       0.65500000
   102  H          0.61600000       0.79100000       0.34500000
   103  H          0.18700000       0.24500000       0.19400000
   104  H          0.81300000       0.75500000       0.80600000
   105  H          0.19200000       0.39200000       0.27000000
   106  H          0.80800000       0.60800000       0.73000000
   107  H          0.32900000       0.02400000       0.44700000
   108  H          0.67100000       0.97600000       0.55300000
   109  H          0.26800000       0.06300000       0.54500000
   110  H          0.73200000       0.93700000       0.45500000
   111  H          0.46100000       0.10600000       0.54800000
   112  H          0.53900000       0.89400000       0.45200000
   113  H          0.20800000       0.04200000       0.22500000
   114  H          0.79200000       0.95800000       0.77500000
   115  H          0.08000000       0.09800000       0.18600000
   116  H          0.92000000       0.90200000       0.81400000
   117  H          0.26700000       0.12100000       0.16700000
   118  H          0.73300000       0.87900000       0.83300000
   119  H          0.45900000       0.78200000       0.68100000
   120  H          0.54100000       0.21800000       0.31900000
   121  H          0.46800000       0.63700000       0.62000000
   122  H          0.53200000       0.36300000       0.38000000
   123  H         -0.01400000       0.58400000       0.39500000
   124  H          0.01400000       0.41600000       0.60500000
   125  H         -0.01900000       0.73300000       0.47300000
   126  H          0.01900000       0.26700000       0.52700000
   127  H          0.34100000       0.49300000       0.66700000
   128  H          0.65900000       0.50700000       0.33300000
   129  H          0.38600000       0.35300000       0.71500000
   130  H          0.61400000       0.64700000       0.28500000
   131  N          0.22140000       0.51750000       0.45410000
   132  N          0.77860000       0.48250000       0.54590000
   133  N          0.21670000       0.85270000       0.61640000
   134  N          0.78330000       0.14730000       0.38360000
   135  N          0.28420000       0.13230000       0.37590000
   136  N          0.71580000       0.86770000       0.62410000
   137  O          0.09810000       0.87560000       0.57420000
   138  O          0.90190000       0.12440000       0.42580000
   139  O          0.33530000       0.89890000       0.68870000
   140  O          0.66470000       0.10110000       0.31130000
