data_MALEHY12
_symmetry_space_group_name_H-M    'P1'
_symmetry_Int_Tables_number       1
loop_
_symmetry_equiv_pos_site_id
_symmetry_equiv_pos_as_xyz
1 x,y,z
_cell_length_a                   6.607015
_cell_length_b                   6.90707
_cell_length_c                   10.5393
_cell_angle_alpha                90.0
_cell_angle_beta                 104.004
_cell_angle_gamma                90.0
loop_
_atom_site_label
_atom_site_type_symbol
_atom_site_fract_x
_atom_site_fract_y
_atom_site_fract_z
     1  N          0.01353000       0.59923000       0.34924170
     2  N          0.48647000       0.09923000       0.15075830
     3  N         -0.01353000       0.40077000       0.65075830
     4  N          0.51353000       0.90077000       0.84924170
     5  H          0.00730000       0.81330000       0.46930000
     6  H          0.49270000       0.31330000       0.03070000
     7  H         -0.00730000       0.18670000       0.53070000
     8  H          0.50730000       0.68670000       0.96930000
     9  N          0.01013000       0.78953000       0.38456160
    10  N          0.48987000       0.28953000       0.11543840
    11  N         -0.01013000       0.21047000       0.61543840
    12  N          0.51013000       0.71047000       0.88456160
    13  C         -0.00213000       0.94543000       0.30732000
    14  C          0.50213000       0.44543000       0.19268000
    15  C          0.00213000       0.05457000       0.69268000
    16  C          0.49787000       0.55457000       0.80732000
    17  O          0.00113000       0.11272000       0.35400160
    18  O          0.49887000       0.61272000       0.14599840
    19  O         -0.00113000       0.88728000       0.64599840
    20  O          0.50113000       0.38728000       0.85400160
    21  C         -0.01674000       0.90314000       0.17202000
    22  C          0.51674000       0.40314000       0.32798000
    23  C          0.01674000       0.09686000       0.82798000
    24  C          0.48326000       0.59686000       0.67202000
    25  H         -0.02540000       0.00430000       0.12030000
    26  H          0.52540000       0.50430000       0.37970000
    27  H          0.02540000      -0.00430000       0.87970000
    28  H          0.47460000       0.49570000       0.62030000
    29  C         -0.01254000       0.71943000       0.13221190
    30  C          0.51254000       0.21943000       0.36778810
    31  C          0.01254000       0.28057000       0.86778810
    32  C          0.48746000       0.78057000       0.63221190
    33  H         -0.01740000       0.68540000       0.04330000
    34  H          0.51740000       0.18540000       0.45670000
    35  H          0.01740000       0.31460000       0.95670000
    36  H          0.48260000       0.81460000       0.54330000
    37  C          0.00373000       0.56893000       0.22682000
    38  C          0.49627000       0.06893000       0.27318000
    39  C         -0.00373000       0.43107000       0.77318000
    40  C          0.50373000       0.93107000       0.72682000
    41  O          0.00453000       0.38672000       0.18410150
    42  O          0.49547000       0.88672000       0.31589850
    43  O         -0.00453000       0.61328000       0.81589850
    44  O          0.50453000       0.11328000       0.68410150
    45  H          0.00240000       0.29440000       0.25130000
    46  H          0.49760000       0.79440000       0.24870000
    47  H         -0.00240000       0.70560000       0.74870000
    48  H          0.50240000       0.20560000       0.75130000
