data_MALEHY01
_symmetry_space_group_name_H-M    'P1'
_symmetry_Int_Tables_number       1
loop_
_symmetry_equiv_pos_site_id
_symmetry_equiv_pos_as_xyz
1 x,y,z
_cell_length_a                   6.8912
_cell_length_b                   9.6742
_cell_length_c                   6.9461
_cell_angle_alpha                90.0
_cell_angle_beta                 100.072
_cell_angle_gamma                90.0
loop_
_atom_site_label
_atom_site_type_symbol
_atom_site_fract_x
_atom_site_fract_y
_atom_site_fract_z
     1  N          0.73762000       0.11041000       0.10542000
     2  N          0.26238000       0.61041000       0.39458000
     3  N          0.26238000       0.88959000       0.89458000
     4  N          0.73762000       0.38959000       0.60542000
     5  N          0.92922000       0.14851000       0.11292000
     6  N          0.07078000       0.64851000       0.38708000
     7  N          0.07078000       0.85149000       0.88708000
     8  N          0.92922000       0.35149000       0.61292000
     9  C          0.96212000       0.28041000       0.12952000
    10  C          0.03788000       0.78041000       0.37048000
    11  C          0.03788000       0.71959000       0.87048000
    12  C          0.96212000       0.21959000       0.62952000
    13  O          0.14682000       0.32581000       0.13842000
    14  O          0.85318000       0.82581000       0.36158000
    15  O          0.85318000       0.67419000       0.86158000
    16  O          0.14682000       0.17419000       0.63842000
    17  C          0.81312000       0.37951000       0.13903000
    18  C          0.18688000       0.87951000       0.36097000
    19  C          0.18688000       0.62049000       0.86097000
    20  C          0.81312000       0.12049000       0.63903000
    21  C          0.62612000       0.33641000       0.13092000
    22  C          0.37388000       0.83641000       0.36908000
    23  C          0.37388000       0.66359000       0.86908000
    24  C          0.62612000       0.16359000       0.63092000
    25  C          0.58242000       0.19151000       0.11212000
    26  C          0.41758000       0.69151000       0.38788000
    27  C          0.41758000       0.80849000       0.88788000
    28  C          0.58242000       0.30849000       0.61212000
    29  O          0.41292000       0.14061000       0.10392000
    30  O          0.58708000       0.64061000       0.39608000
    31  O          0.58708000       0.85939000       0.89608000
    32  O          0.41292000       0.35939000       0.60392000
    33  H          0.71740000       0.02840000       0.08340000
    34  H          0.28260000       0.52840000       0.41660000
    35  H          0.28260000       0.97160000       0.91660000
    36  H          0.71740000       0.47160000       0.58340000
    37  H          0.23650000       0.24450000       0.13250000
    38  H          0.76350000       0.74450000       0.36750000
    39  H          0.76350000       0.75550000       0.86750000
    40  H          0.23650000       0.25550000       0.63250000
    41  H          0.84440000       0.47230000       0.14940000
    42  H          0.15560000       0.97230000       0.35060000
    43  H          0.15560000       0.52770000       0.85060000
    44  H          0.84440000       0.02770000       0.64940000
    45  H          0.52030000       0.39830000       0.13530000
    46  H          0.47970000       0.89830000       0.36470000
    47  H          0.47970000       0.60170000       0.86470000
    48  H          0.52030000       0.10170000       0.63530000
