data_MALEHY10
_symmetry_space_group_name_H-M    'P1'
_symmetry_Int_Tables_number       1
loop_
_symmetry_equiv_pos_site_id
_symmetry_equiv_pos_as_xyz
1 x,y,z
_cell_length_a                   5.832
_cell_length_b                   5.782
_cell_length_c                   7.312
_cell_angle_alpha                79.03
_cell_angle_beta                 99.53
_cell_angle_gamma                107.23
loop_
_atom_site_label
_atom_site_type_symbol
_atom_site_fract_x
_atom_site_fract_y
_atom_site_fract_z
     1  O         -0.03330000       0.25980000       0.35510000
     2  O          0.03330000       0.74020000       0.64490000
     3  O          0.07430000       0.70870000       0.18310000
     4  O          0.92570000       0.29130000       0.81690000
     5  N          0.67850000       0.90170000       0.36910000
     6  N          0.32150000       0.09830000       0.63090000
     7  N          0.45470000       0.74650000       0.33330000
     8  N          0.54530000       0.25350000       0.66670000
     9  C          0.75280000       0.14100000       0.30990000
    10  C          0.24720000       0.85900000       0.69010000
    11  C          0.57180000       0.24270000       0.19310000
    12  C          0.42820000       0.75730000       0.80690000
    13  C          0.34850000       0.10190000       0.15200000
    14  C          0.65150000       0.89810000       0.84800000
    15  C          0.29790000       0.84820000       0.22600000
    16  C          0.70210000       0.15180000       0.77400000
    17  H          0.62700000       0.41900000       0.16000000
    18  H          0.37300000       0.58100000       0.84000000
    19  H          0.19900000       0.14700000       0.06600000
    20  H          0.80100000       0.85300000       0.93400000
    21  H          0.78900000       0.85500000       0.45900000
    22  H          0.21100000       0.14500000       0.54100000
    23  H          0.04800000       0.54900000       0.22600000
    24  H          0.95200000       0.45100000       0.77400000
