data_MALOAM02
_symmetry_space_group_name_H-M    'P1'
_symmetry_Int_Tables_number       1
loop_
_symmetry_equiv_pos_site_id
_symmetry_equiv_pos_as_xyz
1 x,y,z
_cell_length_a                   5.36029
_cell_length_b                   7.51788
_cell_length_c                   11.7912
_cell_angle_alpha                90.0
_cell_angle_beta                 90.0
_cell_angle_gamma                90.0
loop_
_atom_site_label
_atom_site_type_symbol
_atom_site_fract_x
_atom_site_fract_y
_atom_site_fract_z
     1  O          0.06613150       0.25831100       0.37641700
     2  O          0.43386850       0.24168900       0.87641700
     3  O          0.93386850       0.25831100       0.12358300
     4  O          0.56613150       0.24168900       0.62358300
     5  O          0.93386850       0.74168900       0.62358300
     6  O          0.56613150       0.75831100       0.12358300
     7  O          0.06613150       0.74168900       0.87641700
     8  O          0.43386850       0.75831100       0.37641700
     9  N          0.72978000       0.08531140       0.40865900
    10  N          0.77022000       0.41468860       0.90865900
    11  N          0.27022000       0.08531140       0.09134100
    12  N          0.22978000       0.41468860       0.59134100
    13  N          0.27022000       0.91468860       0.59134100
    14  N          0.22978000       0.58531140       0.09134100
    15  N          0.72978000       0.91468860       0.90865900
    16  N          0.77022000       0.58531140       0.40865900
    17  H          0.68670000       0.14991900       0.46861400
    18  H          0.81330000       0.35008100       0.96861400
    19  H          0.31330000       0.14991900       0.03138600
    20  H          0.18670000       0.35008100       0.53138600
    21  H          0.31330000       0.85008100       0.53138600
    22  H          0.18670000       0.64991900       0.03138600
    23  H          0.68670000       0.85008100       0.96861400
    24  H          0.81330000       0.64991900       0.46861400
    25  H          0.64470000      -0.00530000       0.38951300
    26  H          0.85530000       0.50530000       0.88951300
    27  H          0.35530000      -0.00530000       0.11048700
    28  H          0.14470000       0.50530000       0.61048700
    29  H          0.35530000       0.00530000       0.61048700
    30  H          0.14470000       0.49470000       0.11048700
    31  H          0.64470000       0.00530000       0.88951300
    32  H          0.85530000       0.49470000       0.38951300
    33  C          0.93260810       0.12942130       0.35078800
    34  C          0.56739190       0.37057870       0.85078800
    35  C          0.06739190       0.12942130       0.14921200
    36  C          0.43260810       0.37057870       0.64921200
    37  C          0.06739190       0.87057870       0.64921200
    38  C          0.43260810       0.62942130       0.14921200
    39  C          0.93260810       0.87057870       0.85078800
    40  C          0.56739190       0.62942130       0.35078800
    41  C          0.00000000       0.01335190       0.25000000
    42  C          0.50000000       0.48664810       0.75000000
    43  C         -0.00000000      -0.01335190       0.75000000
    44  C          0.50000000       0.51335190       0.25000000
    45  H          0.13630000       0.93708400       0.27211100
    46  H          0.36370000       0.56291600       0.77211100
    47  H          0.86370000       0.93708400       0.22788900
    48  H          0.63630000       0.56291600       0.72788900
    49  H          0.86370000       0.06291600       0.72788900
    50  H          0.63630000       0.43708400       0.22788900
    51  H          0.13630000       0.06291600       0.77211100
    52  H          0.36370000       0.43708400       0.27211100
