data_MALOAM
_symmetry_space_group_name_H-M    'P1'
_symmetry_Int_Tables_number       1
loop_
_symmetry_equiv_pos_site_id
_symmetry_equiv_pos_as_xyz
1 x,y,z
_cell_length_a                   13.072
_cell_length_b                   9.452
_cell_length_c                   8.042
_cell_angle_alpha                90.0
_cell_angle_beta                 73.02
_cell_angle_gamma                90.0
loop_
_atom_site_label
_atom_site_type_symbol
_atom_site_fract_x
_atom_site_fract_y
_atom_site_fract_z
     1  C          0.60040000       0.37920000       0.28060000
     2  C          0.39960000       0.87920000       0.21940000
     3  C          0.39960000       0.62080000       0.71940000
     4  C          0.60040000       0.12080000       0.78060000
     5  C          0.69390000       0.34130000       0.12660000
     6  C          0.30610000       0.84130000       0.37340000
     7  C          0.30610000       0.65870000       0.87340000
     8  C          0.69390000       0.15870000       0.62660000
     9  C          0.49780000       0.37240000       0.23220000
    10  C          0.50220000       0.87240000       0.26780000
    11  C          0.50220000       0.62760000       0.76780000
    12  C          0.49780000       0.12760000       0.73220000
    13  H          0.47200000       0.56800000       0.26700000
    14  H          0.52800000       0.06800000       0.23300000
    15  H          0.52800000       0.43200000       0.73300000
    16  H          0.47200000       0.93200000       0.76700000
    17  H          0.38700000       0.49500000       0.20300000
    18  H          0.61300000      -0.00500000       0.29700000
    19  H          0.61300000       0.50500000       0.79700000
    20  H          0.38700000       0.00500000       0.70300000
    21  H          0.61700000       0.47800000       0.31200000
    22  H          0.38300000       0.97800000       0.18800000
    23  H          0.38300000       0.52200000       0.68800000
    24  H          0.61700000       0.02200000       0.81200000
    25  H          0.59600000       0.31200000       0.37200000
    26  H          0.40400000       0.81200000       0.12800000
    27  H          0.40400000       0.68800000       0.62800000
    28  H          0.59600000       0.18800000       0.87200000
    29  H          0.76300000       0.21900000       0.25100000
    30  H          0.23700000       0.71900000       0.24900000
    31  H          0.23700000       0.78100000       0.74900000
    32  H          0.76300000       0.28100000       0.75100000
    33  H          0.83500000       0.23400000       0.05500000
    34  H          0.16500000       0.73400000       0.44500000
    35  H          0.16500000       0.76600000       0.94500000
    36  H          0.83500000       0.26600000       0.55500000
    37  N          0.44620000       0.49160000       0.23490000
    38  N          0.55380000      -0.00840000       0.26510000
    39  N          0.55380000       0.50840000       0.76510000
    40  N          0.44620000       0.00840000       0.73490000
    41  N          0.76850000       0.25820000       0.15350000
    42  N          0.23150000       0.75820000       0.34650000
    43  N          0.23150000       0.74180000       0.84650000
    44  N          0.76850000       0.24180000       0.65350000
    45  O          0.69990000       0.39100000       0.98120000
    46  O          0.30010000       0.89100000       0.51880000
    47  O          0.30010000       0.60900000       0.01880000
    48  O          0.69990000       0.10900000       0.48120000
    49  O          0.46570000       0.25740000       0.19280000
    50  O          0.53430000       0.75740000       0.30720000
    51  O          0.53430000       0.74260000       0.80720000
    52  O          0.46570000       0.24260000       0.69280000
    53  C         -0.00200000       0.38530000       0.27960000
    54  C          0.00200000       0.88530000       0.22040000
    55  C          0.00200000       0.61470000       0.72040000
    56  C         -0.00200000       0.11470000       0.77960000
    57  C          0.09750000       0.38210000       0.12750000
    58  C          0.90250000       0.88210000       0.37250000
    59  C          0.90250000       0.61790000       0.87250000
    60  C          0.09750000       0.11790000       0.62750000
    61  C          0.19270000       0.34570000       0.19040000
    62  C          0.80730000       0.84570000       0.30960000
    63  C          0.80730000       0.65430000       0.80960000
    64  C          0.19270000       0.15430000       0.69040000
    65  H          0.96700000       0.57000000       0.25000000
    66  H          0.03300000       0.07000000       0.25000000
    67  H          0.03300000       0.43000000       0.75000000
    68  H          0.96700000       0.93000000       0.75000000
    69  H          0.89800000       0.51500000       0.42300000
    70  H          0.10200000       0.01500000       0.07700000
    71  H          0.10200000       0.48500000       0.57700000
    72  H          0.89800000       0.98500000       0.92300000
    73  H          0.08800000       0.31200000       0.04400000
    74  H          0.91200000       0.81200000       0.45600000
    75  H          0.91200000       0.68800000       0.95600000
    76  H          0.08800000       0.18800000       0.54400000
    77  H          0.11600000       0.47800000       0.07200000
    78  H          0.88400000       0.97800000       0.42800000
    79  H          0.88400000       0.52200000       0.92800000
    80  H          0.11600000       0.02200000       0.57200000
    81  H          0.32900000       0.25000000       0.12500000
    82  H          0.67100000       0.75000000       0.37500000
    83  H          0.67100000       0.75000000       0.87500000
    84  H          0.32900000       0.25000000       0.62500000
    85  H          0.25800000       0.22600000      -0.00000000
    86  H          0.74200000       0.72600000       0.50000000
    87  H          0.74200000       0.77400000      -0.00000000
    88  H          0.25800000       0.27400000       0.50000000
    89  N          0.95210000       0.50910000       0.32540000
    90  N          0.04790000       0.00910000       0.17460000
    91  N          0.04790000       0.49090000       0.67460000
    92  N          0.95210000      -0.00910000       0.82540000
    93  N          0.26620000       0.26040000       0.09300000
    94  N          0.73380000       0.76040000       0.40700000
    95  N          0.73380000       0.73960000       0.90700000
    96  N          0.26620000       0.23960000       0.59300000
    97  O          0.96330000       0.27390000       0.35760000
    98  O          0.03670000       0.77390000       0.14240000
    99  O          0.03670000       0.72610000       0.64240000
   100  O          0.96330000       0.22610000       0.85760000
   101  O          0.20030000       0.39680000       0.32850000
   102  O          0.79970000       0.89680000       0.17150000
   103  O          0.79970000       0.60320000       0.67150000
   104  O          0.20030000       0.10320000       0.82850000
