data_MALOAM01
_symmetry_space_group_name_H-M    'P1'
_symmetry_Int_Tables_number       1
loop_
_symmetry_equiv_pos_site_id
_symmetry_equiv_pos_as_xyz
1 x,y,z
_cell_length_a                   5.31403
_cell_length_b                   5.31403
_cell_length_c                   15.536012
_cell_angle_alpha                90.0
_cell_angle_beta                 90.0
_cell_angle_gamma                90.0
loop_
_atom_site_label
_atom_site_type_symbol
_atom_site_fract_x
_atom_site_fract_y
_atom_site_fract_z
     1  O          0.35135180       0.54102000       0.08252500
     2  O          0.64864820       0.45898000       0.58252500
     3  O          0.85135180       0.95898000       0.16747500
     4  O          0.14864820       0.04102000       0.66747500
     5  O          0.45898000       0.64864820       0.41747500
     6  O          0.54102000       0.35135180       0.91747500
     7  O          0.04102000       0.14864820       0.33252500
     8  O          0.95898000       0.85135180       0.83252500
     9  N          0.93838000       0.54023000       0.04955800
    10  N          0.06162000       0.45977000       0.54955800
    11  N          0.43838000       0.95977000       0.20044200
    12  N          0.56162000       0.04023000       0.70044200
    13  N          0.45977000       0.06162000       0.45044200
    14  N          0.54023000       0.93838000       0.95044200
    15  N          0.04023000       0.56162000       0.29955800
    16  N          0.95977000       0.43838000       0.79955800
    17  H          0.90460000       0.67540000       0.08001100
    18  H          0.09540000       0.32460000       0.58001100
    19  H          0.40460000       0.82460000       0.16998900
    20  H          0.59540000       0.17540000       0.66998900
    21  H          0.32460000       0.09540000       0.41998900
    22  H          0.67540000       0.90460000       0.91998900
    23  H          0.17540000       0.59540000       0.33001100
    24  H          0.82460000       0.40460000       0.83001100
    25  H          0.82260000       0.46940000       0.02771200
    26  H          0.17740000       0.53060000       0.52771200
    27  H          0.32260000       0.03060000       0.22228800
    28  H          0.67740000       0.96940000       0.72228800
    29  H          0.53060000       0.17740000       0.47228800
    30  H          0.46940000       0.82260000       0.97228800
    31  H          0.96940000       0.67740000       0.27771200
    32  H          0.03060000       0.32260000       0.77771200
    33  C          0.16763000       0.44223000       0.04704800
    34  C          0.83237000       0.55777000       0.54704800
    35  C          0.66763000       0.05777000       0.20295200
    36  C          0.33237000       0.94223000       0.70295200
    37  C          0.55777000       0.83237000       0.45295200
    38  C          0.44223000       0.16763000       0.95295200
    39  C          0.94223000       0.33237000       0.29704800
    40  C          0.05777000       0.66763000       0.79704800
    41  C          0.19322000       0.19322000       0.00000000
    42  C          0.80678000       0.80678000       0.50000000
    43  C          0.69322000       0.30678000       0.25000000
    44  C          0.30678000       0.69322000       0.75000000
    45  H          0.16630000       0.06440000       0.04481000
    46  H          0.83370000       0.93560000       0.54481000
    47  H          0.66630000       0.43560000       0.20519000
    48  H          0.33370000       0.56440000       0.70519000
    49  H          0.93560000       0.83370000       0.45519000
    50  H          0.06440000       0.16630000       0.95519000
    51  H          0.56440000       0.33370000       0.29481000
    52  H          0.43560000       0.66630000       0.79481000
