data_MAQWIM
_symmetry_space_group_name_H-M    'P1'
_symmetry_Int_Tables_number       1
loop_
_symmetry_equiv_pos_site_id
_symmetry_equiv_pos_as_xyz
1 x,y,z
_cell_length_a                   9.9685
_cell_length_b                   8.0825
_cell_length_c                   13.2678
_cell_angle_alpha                90.0
_cell_angle_beta                 90.0
_cell_angle_gamma                90.0
loop_
_atom_site_label
_atom_site_type_symbol
_atom_site_fract_x
_atom_site_fract_y
_atom_site_fract_z
     1  C          0.16965000       0.14037000       0.01605000
     2  C          0.83035000       0.85963000       0.51605000
     3  C          0.33035000       0.64037000       0.51605000
     4  C          0.66965000       0.35963000       0.01605000
     5  C          0.03045000       0.12157000       0.01274000
     6  C          0.96955000       0.87843000       0.51274000
     7  C          0.46955000       0.62157000       0.51274000
     8  C          0.53045000       0.37843000       0.01274000
     9  H          0.98050000       0.17730000       0.96420000
    10  H          0.01950000       0.82270000       0.46420000
    11  H          0.51950000       0.67730000       0.46420000
    12  H          0.48050000       0.32270000       0.96420000
    13  C          0.96765000       0.02096000       0.08085000
    14  C          0.03235000       0.97904000       0.58085000
    15  C          0.53235000       0.52096000       0.58085000
    16  C          0.46765000       0.47904000       0.08085000
    17  H          0.87470000       0.01140000       0.07930000
    18  H          0.12530000      -0.01140000       0.57930000
    19  H          0.62530000       0.51140000       0.57930000
    20  H          0.37470000       0.48860000       0.07930000
    21  C          0.03985000       0.93346000       0.15184000
    22  C          0.96015000       0.06654000       0.65184000
    23  C          0.46015000       0.43346000       0.65184000
    24  C          0.53985000       0.56654000       0.15184000
    25  C          0.17896000       0.95527000       0.15345000
    26  C          0.82104000       0.04473000       0.65345000
    27  C          0.32104000       0.45527000       0.65345000
    28  C          0.67896000       0.54473000       0.15345000
    29  H          0.22940000       0.89850000       0.20110000
    30  H          0.77060000       0.10150000       0.70110000
    31  H          0.27060000       0.39850000       0.70110000
    32  H          0.72940000       0.60150000       0.20110000
    33  C          0.24315000       0.05818000       0.08635000
    34  C          0.75685000       0.94182000       0.58635000
    35  C          0.25685000       0.55818000       0.58635000
    36  C          0.74315000       0.44182000       0.08635000
    37  H          0.33570000       0.07130000       0.08900000
    38  H          0.66430000       0.92870000       0.58900000
    39  H          0.16430000       0.57130000       0.58900000
    40  H          0.83570000       0.42870000       0.08900000
    41  C          0.96495000       0.82397000       0.22094000
    42  C          0.03505000       0.17603000       0.72094000
    43  C          0.53505000       0.32397000       0.72094000
    44  C          0.46495000       0.67603000       0.22094000
    45  C          0.00876000       0.45047000       0.34405000
    46  C         -0.00876000       0.54953000       0.84405000
    47  C          0.49124000       0.95047000       0.84405000
    48  C          0.50876000       0.04953000       0.34405000
    49  C          0.11879000       0.37088000       0.28841000
    50  C          0.88121000       0.62912000       0.78841000
    51  C          0.38121000       0.87088000       0.78841000
    52  C          0.61879000       0.12912000       0.28841000
    53  H          0.10510000       0.38530000       0.21730000
    54  H          0.89490000       0.61470000       0.71730000
    55  H          0.39490000       0.88530000       0.71730000
    56  H          0.60510000       0.11470000       0.21730000
    57  H          0.12050000       0.25480000       0.30400000
    58  H          0.87950000       0.74520000       0.80400000
    59  H          0.37950000       0.75480000       0.80400000
    60  H          0.62050000       0.24520000       0.30400000
    61  H          0.20250000       0.42020000       0.30760000
    62  H          0.79750000       0.57980000       0.80760000
    63  H          0.29750000       0.92020000       0.80760000
    64  H          0.70250000       0.07980000       0.30760000
    65  C          0.93888900       0.35499000       0.42358000
    66  C          0.06111100       0.64501000       0.92358000
    67  C          0.56111100       0.85499000       0.92358000
    68  C          0.43888900       0.14501000       0.42358000
    69  H          0.87430000       0.42450000       0.45640000
    70  H          0.12570000       0.57550000       0.95640000
    71  H          0.62570000       0.92450000       0.95640000
    72  H          0.37430000       0.07550000       0.45640000
    73  H          0.00310000       0.31630000       0.47200000
    74  H         -0.00310000       0.68370000       0.97200000
    75  H          0.49690000       0.81630000       0.97200000
    76  H          0.50310000       0.18370000       0.47200000
    77  H          0.89390000       0.26190000       0.39360000
    78  H          0.10610000       0.73810000       0.89360000
    79  H          0.60610000       0.76190000       0.89360000
    80  H          0.39390000       0.23810000       0.39360000
    81  N          0.03105000       0.69105000       0.25734000
    82  N          0.96895000       0.30895000       0.75734000
    83  N          0.46895000       0.19105000       0.75734000
    84  N          0.53105000       0.80895000       0.25734000
    85  N          0.96465000       0.59715000       0.32914000
    86  N          0.03535000       0.40285000       0.82914000
    87  N          0.53535000       0.09715000       0.82914000
    88  N          0.46465000       0.90285000       0.32914000
    89  O          0.23524000       0.24016000       0.95006000
    90  O          0.76476000       0.75984000       0.45006000
    91  O          0.26476000       0.74016000       0.45006000
    92  O          0.73524000       0.25984000       0.95006000
    93  O          0.84627000       0.85054000       0.24204000
    94  O          0.15373000       0.14946000       0.74204000
    95  O          0.65373000       0.35054000       0.74204000
    96  O          0.34627000       0.64946000       0.24204000
    97  H          0.11470000       0.67980000       0.24160000
    98  H          0.88530000       0.32020000       0.74160000
    99  H          0.38530000       0.17980000       0.74160000
   100  H          0.61470000       0.82020000       0.24160000
   101  H          0.16780000       0.29380000       0.90150000
   102  H          0.83220000       0.70620000       0.40150000
   103  H          0.33220000       0.79380000       0.40150000
   104  H          0.66780000       0.20620000       0.90150000
