data_MAQWIM05
_symmetry_space_group_name_H-M    'P1'
_symmetry_Int_Tables_number       1
loop_
_symmetry_equiv_pos_site_id
_symmetry_equiv_pos_as_xyz
1 x,y,z
_cell_length_a                   7.631511
_cell_length_b                   12.099617
_cell_length_c                   10.247314
_cell_angle_alpha                90.0
_cell_angle_beta                 97.9502
_cell_angle_gamma                90.0
loop_
_atom_site_label
_atom_site_type_symbol
_atom_site_fract_x
_atom_site_fract_y
_atom_site_fract_z
     1  O          0.62029880       0.38857800       0.16362900
     2  O          0.37970120       0.88857800       0.33637100
     3  O          0.37970120       0.61142200       0.83637100
     4  O          0.62029880       0.11142200       0.66362900
     5  H          0.59440000       0.36390000       0.08890000
     6  H          0.40560000       0.86390000       0.41110000
     7  H          0.40560000       0.63610000       0.91110000
     8  H          0.59440000       0.13610000       0.58890000
     9  O          0.33920120       0.26236800       0.51872800
    10  O          0.66079880       0.76236800       0.98127200
    11  O          0.66079880       0.73763200       0.48127200
    12  O          0.33920120       0.23763200       0.01872800
    13  C          0.12141150       0.28556900       0.33031110
    14  C          0.87858850       0.78556900       0.16968890
    15  C          0.87858850       0.71443100       0.66968890
    16  C          0.12141150       0.21443100       0.83031110
    17  C          0.64083150       0.07973100       0.31861120
    18  C          0.35916850       0.57973100       0.18138880
    19  C          0.35916850       0.92026900       0.68138880
    20  C          0.64083150       0.42026900       0.81861120
    21  C          0.29529150       0.24698900       0.39958110
    22  C          0.70470850       0.74698900       0.10041890
    23  C          0.70470850       0.75301100       0.60041890
    24  C          0.29529150       0.25301100       0.89958110
    25  C          0.78395850       0.35404100       0.21368110
    26  C          0.21604150       0.85404100       0.28631890
    27  C          0.21604150       0.64595900       0.78631890
    28  C          0.78395850       0.14595900       0.71368110
    29  C          0.04195150       0.23933100       0.21162120
    30  C          0.95804850       0.73933100       0.28837880
    31  C          0.95804850       0.76066900       0.78837880
    32  C          0.04195150       0.26066900       0.71162120
    33  H          0.10120000       0.18450000       0.17140000
    34  H          0.89880000       0.68450000       0.32860000
    35  H          0.89880000       0.81550000       0.82860000
    36  H          0.10120000       0.31550000       0.67140000
    37  C          0.87601840       0.27389100       0.15273120
    38  C          0.12398160       0.77389100       0.34726880
    39  C          0.12398160       0.72610900       0.84726880
    40  C          0.87601840       0.22610900       0.65273120
    41  H          0.82640000       0.24360000       0.07270000
    42  H          0.17360000       0.74360000       0.42730000
    43  H          0.17360000       0.75640000       0.92730000
    44  H          0.82640000       0.25640000       0.57270000
    45  C          0.86266840       0.40128100       0.33204110
    46  C          0.13733160       0.90128100       0.16795890
    47  C          0.13733160       0.59871900       0.66795890
    48  C          0.86266840       0.09871900       0.83204110
    49  H          0.80310000       0.45560000       0.37270000
    50  H          0.19690000       0.95560000       0.12730000
    51  H          0.19690000       0.54440000       0.62730000
    52  H          0.80310000       0.04440000       0.87270000
    53  C          0.79964170       0.02188110       0.39002130
    54  C          0.20035830       0.52188110       0.10997870
    55  C          0.20035830       0.97811890       0.60997870
    56  C          0.79964170       0.47811890       0.89002130
    57  H          0.81190000       0.04020000       0.48200000
    58  H          0.18810000       0.54020000       0.01800000
    59  H          0.18810000       0.95980000       0.51800000
    60  H          0.81190000       0.45980000       0.98200000
    61  H          0.90360000       0.04490000       0.35430000
    62  H          0.09640000       0.54490000       0.14570000
    63  H          0.09640000       0.95510000       0.64570000
    64  H          0.90360000       0.45510000       0.85430000
    65  H          0.78510000       0.94340000       0.37950000
    66  H          0.21490000       0.44340000       0.12050000
    67  H          0.21490000       0.05660000       0.62050000
    68  H          0.78510000       0.55660000       0.87950000
    69  C          0.02920160       0.36727100       0.38875110
    70  C          0.97079840       0.86727100       0.11124890
    71  C          0.97079840       0.63272900       0.61124890
    72  C          0.02920160       0.13272900       0.88875110
    73  H          0.08050000       0.39950000       0.46720000
    74  H          0.91950000       0.89950000       0.03280000
    75  H          0.91950000       0.60050000       0.53280000
    76  H          0.08050000       0.10050000       0.96720000
    77  C          0.59795170       0.05482110       0.17434120
    78  C          0.40204830       0.55482110       0.32565880
    79  C          0.40204830       0.94517890       0.82565880
    80  C          0.59795170       0.44517890       0.67434120
    81  H          0.53600000       0.98570000       0.16280000
    82  H          0.46400000       0.48570000       0.33720000
    83  H          0.46400000       0.01430000       0.83720000
    84  H          0.53600000       0.51430000       0.66280000
    85  H          0.70550000       0.05020000       0.13590000
    86  H          0.29450000       0.55020000       0.36410000
    87  H          0.29450000       0.94980000       0.86410000
    88  H          0.70550000       0.44980000       0.63590000
    89  H          0.52480000       0.11260000       0.13200000
    90  H          0.47520000       0.61260000       0.36800000
    91  H          0.47520000       0.88740000       0.86800000
    92  H          0.52480000       0.38740000       0.63200000
    93  N          0.55273130       0.14145900       0.38771100
    94  N          0.44726870       0.64145900       0.11228900
    95  N          0.44726870       0.85854100       0.61228900
    96  N          0.55273130       0.35854100       0.88771100
    97  N          0.39932130       0.19098900       0.32456100
    98  N          0.60067870       0.69098900       0.17543900
    99  N          0.60067870       0.80901100       0.67543900
   100  N          0.39932130       0.30901100       0.82456100
   101  H          0.37120000       0.18630000       0.24050000
   102  H          0.62880000       0.68630000       0.25950000
   103  H          0.62880000       0.81370000       0.75950000
   104  H          0.37120000       0.31370000       0.74050000
