data_MAQWIM01
_symmetry_space_group_name_H-M    'P1'
_symmetry_Int_Tables_number       1
loop_
_symmetry_equiv_pos_site_id
_symmetry_equiv_pos_as_xyz
1 x,y,z
_cell_length_a                   9.8353
_cell_length_b                   9.1533
_cell_length_c                   11.3705
_cell_angle_alpha                90.0
_cell_angle_beta                 90.0
_cell_angle_gamma                90.0
loop_
_atom_site_label
_atom_site_type_symbol
_atom_site_fract_x
_atom_site_fract_y
_atom_site_fract_z
     1  C          0.85032000       0.17282000       0.74502000
     2  C          0.14968000       0.82718000       0.24502000
     3  C          0.64968000       0.67282000       0.24502000
     4  C          0.35032000       0.32718000       0.74502000
     5  C          0.98222000       0.12382000       0.72742000
     6  C          0.01778000       0.87618000       0.22742000
     7  C          0.51778000       0.62382000       0.22742000
     8  C          0.48222000       0.37618000       0.72742000
     9  H          0.04100000       0.17420000       0.67490000
    10  H          0.95900000       0.82580000       0.17490000
    11  H          0.45900000       0.67420000       0.17490000
    12  H          0.54100000       0.32580000       0.67490000
    13  C          0.02762000       0.00172000       0.78652000
    14  C          0.97238000      -0.00172000       0.28652000
    15  C          0.47238000       0.50172000       0.28652000
    16  C          0.52762000       0.49828000       0.78652000
    17  H          0.11810000       0.96890000       0.77410000
    18  H          0.88190000       0.03110000       0.27410000
    19  H          0.38190000       0.46890000       0.27410000
    20  H          0.61810000       0.53110000       0.77410000
    21  C          0.94402000       0.92500190       0.86402000
    22  C          0.05598000       0.07499810       0.36402000
    23  C          0.55598000       0.42500190       0.36402000
    24  C          0.44402000       0.57499810       0.86402000
    25  C          0.81122000       0.97572000       0.88152000
    26  C          0.18878000       0.02428000       0.38152000
    27  C          0.68878000       0.47572000       0.38152000
    28  C          0.31122000       0.52428000       0.88152000
    29  H          0.75240000       0.92560000       0.93410000
    30  H          0.24760000       0.07440000       0.43410000
    31  H          0.74760000       0.42560000       0.43410000
    32  H          0.25240000       0.57440000       0.93410000
    33  C          0.76512000       0.09872000       0.82232000
    34  C          0.23488000       0.90128000       0.32232000
    35  C          0.73488000       0.59872000       0.32232000
    36  C          0.26512000       0.40128000       0.82232000
    37  H          0.67490000       0.13250000       0.83470000
    38  H          0.32510000       0.86750000       0.33470000
    39  H          0.82510000       0.63250000       0.33470000
    40  H          0.17490000       0.36750000       0.83470000
    41  C          0.00582000       0.80012000       0.92802000
    42  C         -0.00582000       0.19988000       0.42802000
    43  C          0.49418000       0.30012000       0.42802000
    44  C          0.50582000       0.69988000       0.92802000
    45  C          0.92552000       0.47052000       0.06392000
    46  C          0.07448000       0.52948000       0.56392000
    47  C          0.57448000       0.97052000       0.56392000
    48  C          0.42552000       0.02948000       0.06392000
    49  C          0.79533000       0.42152000       0.00913000
    50  C          0.20467000       0.57848000       0.50913000
    51  C          0.70467000       0.92152000       0.50913000
    52  C          0.29533000       0.07848000       0.00913000
    53  H          0.79810000       0.44050000       0.92430000
    54  H          0.20190000       0.55950000       0.42430000
    55  H          0.70190000       0.94050000       0.42430000
    56  H          0.29810000       0.05950000       0.92430000
    57  H          0.71930000       0.47520000       0.04430000
    58  H          0.28070000       0.52480000       0.54430000
    59  H          0.78070000       0.97520000       0.54430000
    60  H          0.21930000       0.02480000       0.04430000
    61  H          0.78310000       0.31660000       0.02280000
    62  H          0.21690000       0.68340000       0.52280000
    63  H          0.71690000       0.81660000       0.52280000
    64  H          0.28310000       0.18340000       0.02280000
    65  C         -0.00847000       0.36833000       0.14903000
    66  C          0.00847000       0.63167000       0.64903000
    67  C          0.50847000       0.86833000       0.64903000
    68  C          0.49153000       0.13167000       0.14903000
    69  H          0.08000000       0.40790000       0.17280000
    70  H          0.92000000       0.59210000       0.67280000
    71  H          0.42000000       0.90790000       0.67280000
    72  H          0.58000000       0.09210000       0.17280000
    73  H          0.00450000       0.27290000       0.11170000
    74  H         -0.00450000       0.72710000       0.61170000
    75  H          0.49550000       0.77290000       0.61170000
    76  H          0.50450000       0.22710000       0.11170000
    77  H          0.93340000       0.35730000       0.21850000
    78  H          0.06660000       0.64270000       0.71850000
    79  H          0.56660000       0.85730000       0.71850000
    80  H          0.43340000       0.14270000       0.21850000
    81  N          0.92364180       0.69341170       0.97038170
    82  N          0.07635820       0.30658830       0.47038170
    83  N          0.57635820       0.19341170       0.47038170
    84  N          0.42364180       0.80658830       0.97038170
    85  N          0.98526180       0.59306180       0.04596180
    86  N          0.01473820       0.40693820       0.54596180
    87  N          0.51473820       0.09306180       0.54596180
    88  N          0.48526180       0.90693820       0.04596180
    89  O          0.80151160       0.29432160       0.69023170
    90  O          0.19848840       0.70567840       0.19023170
    91  O          0.69848840       0.79432160       0.19023170
    92  O          0.30151160       0.20567840       0.69023170
    93  O          0.12989140       0.79273160       0.93969180
    94  O          0.87010860       0.20726840       0.43969180
    95  O          0.37010860       0.29273160       0.43969180
    96  O          0.62989140       0.70726840       0.93969180
    97  H          0.83630000       0.69730000       0.96330000
    98  H          0.16370000       0.30270000       0.46330000
    99  H          0.66370000       0.19730000       0.46330000
   100  H          0.33630000       0.80270000       0.96330000
   101  H          0.86130000       0.31730000       0.62030000
   102  H          0.13870000       0.68270000       0.12030000
   103  H          0.63870000       0.81730000       0.12030000
   104  H          0.36130000       0.18270000       0.62030000
