data_MAQWIM03
_symmetry_space_group_name_H-M    'P1'
_symmetry_Int_Tables_number       1
loop_
_symmetry_equiv_pos_site_id
_symmetry_equiv_pos_as_xyz
1 x,y,z
_cell_length_a                   9.00801
_cell_length_b                   7.06401
_cell_length_c                   15.8332
_cell_angle_alpha                90.0
_cell_angle_beta                 90.0
_cell_angle_gamma                90.0
loop_
_atom_site_label
_atom_site_type_symbol
_atom_site_fract_x
_atom_site_fract_y
_atom_site_fract_z
     1  C          0.67183180       0.42052000       0.11998900
     2  C          0.32816820       0.57948000       0.61998900
     3  C          0.82816820       0.92052000       0.61998900
     4  C          0.17183180       0.07948000       0.11998900
     5  C          0.51736180       0.41332000       0.12491100
     6  C          0.48263820       0.58668000       0.62491100
     7  C          0.98263820       0.91332000       0.62491100
     8  C          0.01736180       0.08668000       0.12491100
     9  H          0.46120000       0.36290000       0.07940000
    10  H          0.53880000       0.63710000       0.57940000
    11  H          0.03880000       0.86290000       0.57940000
    12  H          0.96120000       0.13710000       0.07940000
    13  C          0.44651160       0.47972000       0.19615100
    14  C          0.55348840       0.52028000       0.69615100
    15  C          0.05348840       0.97972000       0.69615100
    16  C          0.94651160       0.02028000       0.19615100
    17  H          0.34140000       0.47250000       0.19960000
    18  H          0.65860000       0.52750000       0.69960000
    19  H          0.15860000       0.97250000       0.69960000
    20  H          0.84140000       0.02750000       0.19960000
    21  C          0.52571160       0.55672000       0.26292900
    22  C          0.47428840       0.44328000       0.76292900
    23  C          0.97428840       0.05672000       0.76292900
    24  C          0.02571160       0.94328000       0.26292900
    25  C          0.68047170       0.55562000       0.25926100
    26  C          0.31952830       0.44438000       0.75926100
    27  C          0.81952830       0.05562000       0.75926100
    28  C          0.18047170       0.94438000       0.25926100
    29  H          0.73640000       0.60220000       0.30570000
    30  H          0.26360000       0.39780000       0.80570000
    31  H          0.76360000       0.10220000       0.80570000
    32  H          0.23640000       0.89780000       0.30570000
    33  C          0.75308160       0.48732000       0.18859110
    34  C          0.24691840       0.51268000       0.68859110
    35  C          0.74691840      -0.01268000       0.68859110
    36  C          0.25308160       0.01268000       0.18859110
    37  H          0.85850000       0.48610000       0.18680000
    38  H          0.14150000       0.51390000       0.68680000
    39  H          0.64150000      -0.01390000       0.68680000
    40  H          0.35850000       0.01390000       0.18680000
    41  C          0.44132150       0.63642190       0.33546900
    42  C          0.55867850       0.36357810       0.83546900
    43  C          0.05867850       0.13642190       0.83546900
    44  C          0.94132150       0.86357810       0.33546900
    45  C          0.45422170       0.02982000       0.46543100
    46  C          0.54577830       0.97018000       0.96543100
    47  C          0.04577830       0.52982000       0.96543100
    48  C          0.95422170       0.47018000       0.46543100
    49  C          0.53942000       0.16733000       0.41270130
    50  C          0.46058000       0.83267000       0.91270130
    51  C          0.96058000       0.66733000       0.91270130
    52  C          0.03942000       0.33267000       0.41270130
    53  H          0.64600000       0.14550000       0.42030000
    54  H          0.35400000       0.85450000       0.92030000
    55  H          0.85400000       0.64550000       0.92030000
    56  H          0.14600000       0.35450000       0.42030000
    57  H          0.51480000       0.29670000       0.43010000
    58  H          0.48520000       0.70330000       0.93010000
    59  H         -0.01480000       0.79670000       0.93010000
    60  H          0.01480000       0.20330000       0.43010000
    61  H          0.51330000       0.14990000       0.35310000
    62  H          0.48670000       0.85010000       0.85310000
    63  H         -0.01330000       0.64990000       0.85310000
    64  H          0.01330000       0.35010000       0.35310000
    65  C          0.38502000       0.10173000       0.54513130
    66  C          0.61498000       0.89827000       0.04513130
    67  C          0.11498000       0.60173000       0.04513130
    68  C          0.88502000       0.39827000       0.54513130
    69  H          0.33120000      -0.00150000       0.57300000
    70  H          0.66880000       0.00150000       0.07300000
    71  H          0.16880000       0.49850000       0.07300000
    72  H          0.83120000       0.50150000       0.57300000
    73  H          0.31580000       0.20440000       0.53170000
    74  H          0.68420000       0.79560000       0.03170000
    75  H          0.18420000       0.70440000       0.03170000
    76  H          0.81580000       0.29560000       0.53170000
    77  H          0.46280000       0.14910000       0.58290000
    78  H          0.53720000       0.85090000       0.08290000
    79  H          0.03720000       0.64910000       0.08290000
    80  H          0.96280000       0.35090000       0.58290000
    81  N          0.50447150       0.78463180       0.37607800
    82  N          0.49552850       0.21536820       0.87607800
    83  N         -0.00447150       0.28463180       0.87607800
    84  N          0.00447150       0.71536820       0.37607800
    85  H          0.58520000       0.82230000       0.36501400
    86  H          0.41480000       0.17770000       0.86501400
    87  H          0.91480000       0.32230000       0.86501400
    88  H          0.08520000       0.67770000       0.36501400
    89  N          0.43367150       0.85501170       0.44783900
    90  N          0.56632850       0.14498830       0.94783900
    91  N          0.06632850       0.35501170       0.94783900
    92  N          0.93367150       0.64498830       0.44783900
    93  O          0.74789130       0.36592170       0.05027700
    94  O          0.25210870       0.63407830       0.55027700
    95  O          0.75210870       0.86592170       0.55027700
    96  O          0.24789130       0.13407830       0.05027700
    97  H          0.69020000       0.31430000       0.01281400
    98  H          0.30980000       0.68570000       0.51281400
    99  H          0.80980000       0.81430000       0.51281400
   100  H          0.19020000       0.18570000       0.01281400
   101  O          0.31654120       0.57951150       0.35430700
   102  O          0.68345880       0.42048850       0.85430700
   103  O          0.18345880       0.07951150       0.85430700
   104  O          0.81654120       0.92048850       0.35430700
