data_MAVGEW02
_symmetry_space_group_name_H-M    'P1'
_symmetry_Int_Tables_number       1
loop_
_symmetry_equiv_pos_site_id
_symmetry_equiv_pos_as_xyz
1 x,y,z
_cell_length_a                   4.13364
_cell_length_b                   27.1993
_cell_length_c                   11.446812
_cell_angle_alpha                90.0
_cell_angle_beta                 98.7584
_cell_angle_gamma                90.0
loop_
_atom_site_label
_atom_site_type_symbol
_atom_site_fract_x
_atom_site_fract_y
_atom_site_fract_z
     1  C          0.12675000       0.62476600       0.13004180
     2  C          0.87325000       0.12476600       0.36995820
     3  C          0.87325000       0.37523400       0.86995820
     4  C          0.12675000       0.87523400       0.63004180
     5  C         -0.01965000       0.58337700       0.18938180
     6  C          0.01965000       0.08337700       0.31061820
     7  C          0.01965000       0.41662300       0.81061820
     8  C         -0.01965000       0.91662300       0.68938180
     9  C          0.87614000       0.54268700       0.12282000
    10  C          0.12386000       0.04268700       0.37718000
    11  C          0.12386000       0.45731300       0.87718000
    12  C          0.87614000       0.95731300       0.62282000
    13  H          0.89280000       0.54210000       0.04270000
    14  H          0.10720000       0.04210000       0.45730000
    15  H          0.10720000       0.45790000       0.95730000
    16  H          0.89280000       0.95790000       0.54270000
    17  C          0.74724000       0.50275800       0.17373000
    18  C          0.25276000       0.00275800       0.32627000
    19  C          0.25276000       0.49724200       0.82627000
    20  C          0.74724000      -0.00275800       0.67373000
    21  H          0.67750000       0.47550000       0.12760000
    22  H          0.32250000       0.97550000       0.37240000
    23  H          0.32250000       0.52450000       0.87240000
    24  H          0.67750000       0.02450000       0.62760000
    25  C          0.72104000       0.50283900       0.29093000
    26  C          0.27896000       0.00283900       0.20907000
    27  C          0.27896000       0.49716100       0.70907000
    28  C          0.72104000      -0.00283900       0.79093000
    29  H          0.63560000       0.47570000       0.32520000
    30  H          0.36440000       0.97570000       0.17480000
    31  H          0.36440000       0.52430000       0.67480000
    32  H          0.63560000       0.02430000       0.82520000
    33  C          0.82131000       0.54291900       0.35713000
    34  C          0.17869000       0.04291900       0.14287000
    35  C          0.17869000       0.45708100       0.64287000
    36  C          0.82131000       0.95708100       0.85713000
    37  H          0.80140000       0.54350000       0.43690000
    38  H          0.19860000       0.04350000       0.06310000
    39  H          0.19860000       0.45650000       0.56310000
    40  H          0.80140000       0.95650000       0.93690000
    41  C          0.95252000       0.58282800       0.30692000
    42  C          0.04748000       0.08282800       0.19308000
    43  C          0.04748000       0.41717200       0.69308000
    44  C          0.95252000       0.91717200       0.80692000
    45  H          0.02340000       0.60980000       0.35370000
    46  H         -0.02340000       0.10980000       0.14630000
    47  H         -0.02340000       0.39020000       0.64630000
    48  H          0.02340000       0.89020000       0.85370000
    49  C          0.35514000       0.74435600       0.21883150
    50  C          0.64486000       0.24435600       0.28116850
    51  C          0.64486000       0.25564400       0.78116850
    52  C          0.35514000       0.75564400       0.71883150
    53  C          0.51594000       0.79000600       0.19595150
    54  C          0.48406000       0.29000600       0.30404850
    55  C          0.48406000       0.20999400       0.80404850
    56  C          0.51594000       0.70999400       0.69595150
    57  C          0.67055000       0.80604700       0.10449170
    58  C          0.32945000       0.30604700       0.39550830
    59  C          0.32945000       0.19395300       0.89550830
    60  C          0.67055000       0.69395300       0.60449170
    61  H          0.68910000       0.78580000       0.04050000
    62  H          0.31090000       0.28580000       0.45950000
    63  H          0.31090000       0.21420000       0.95950000
    64  H          0.68910000       0.71420000       0.54050000
    65  C          0.79685000       0.85314700       0.11072000
    66  C          0.20315000       0.35314700       0.38928000
    67  C          0.20315000       0.14685300       0.88928000
    68  C          0.79685000       0.64685300       0.61072000
    69  H          0.89980000       0.86490000       0.04950000
    70  H          0.10020000       0.36490000       0.45050000
    71  H          0.10020000       0.13510000       0.95050000
    72  H          0.89980000       0.63510000       0.54950000
    73  C          0.77245000       0.88290700       0.20602000
    74  C          0.22755000       0.38290700       0.29398000
    75  C          0.22755000       0.11709300       0.79398000
    76  C          0.77245000       0.61709300       0.70602000
    77  H          0.85910000       0.91450000       0.20760000
    78  H          0.14090000       0.41450000       0.29240000
    79  H          0.14090000       0.08550000       0.79240000
    80  H          0.85910000       0.58550000       0.70760000
    81  C          0.62365000       0.86735700       0.29902000
    82  C          0.37635000       0.36735700       0.20098000
    83  C          0.37635000       0.13264300       0.70098000
    84  C          0.62365000       0.63264300       0.79902000
    85  H          0.60890000       0.88770000       0.36340000
    86  H          0.39110000       0.38770000       0.13660000
    87  H          0.39110000       0.11230000       0.63660000
    88  H          0.60890000       0.61230000       0.86340000
    89  C          0.49745000       0.82050600       0.29283170
    90  C          0.50255000       0.32050600       0.20716830
    91  C          0.50255000       0.17949400       0.70716830
    92  C          0.49745000       0.67949400       0.79283170
    93  C          0.23515000       0.75086600       0.33540160
    94  C          0.76485000       0.25086600       0.16459840
    95  C          0.76485000       0.24913400       0.66459840
    96  C          0.23515000       0.74913400       0.83540160
    97  N          0.32284000       0.70605500       0.15161130
    98  N          0.67716000       0.20605500       0.34838870
    99  N          0.67716000       0.29394500       0.84838870
   100  N          0.32284000       0.79394500       0.65161130
   101  N          0.16934000       0.66699500       0.19449140
   102  N          0.83066000       0.16699500       0.30550860
   103  N          0.83066000       0.33300500       0.80550860
   104  N          0.16934000       0.83300500       0.69449140
   105  H          0.10030000       0.66910000       0.26150000
   106  H          0.89970000       0.16910000       0.23850000
   107  H          0.89970000       0.33090000       0.73850000
   108  H          0.10030000       0.83090000       0.76150000
   109  N          0.33284000       0.79604500       0.37387140
   110  N          0.66716000       0.29604500       0.12612860
   111  N          0.66716000       0.20395500       0.62612860
   112  N          0.33284000       0.70395500       0.87387140
   113  H          0.29840000       0.80830000       0.44010000
   114  H          0.70160000       0.30830000       0.05990000
   115  H          0.70160000       0.19170000       0.55990000
   116  H          0.29840000       0.69170000       0.94010000
   117  O          0.20424000       0.62125400       0.03232130
   118  O          0.79576000       0.12125400       0.46767870
   119  O          0.79576000       0.37874600       0.96767870
   120  O          0.20424000       0.87874600       0.53232130
   121  O          0.07914000       0.72078500       0.38448120
   122  O          0.92086000       0.22078500       0.11551880
   123  O          0.92086000       0.27921500       0.61551880
   124  O          0.07914000       0.77921500       0.88448120
