data_MAVGEW01
_symmetry_space_group_name_H-M    'P1'
_symmetry_Int_Tables_number       1
loop_
_symmetry_equiv_pos_site_id
_symmetry_equiv_pos_as_xyz
1 x,y,z
_cell_length_a                   8.00239
_cell_length_b                   28.5493
_cell_length_c                   5.25746
_cell_angle_alpha                90.0
_cell_angle_beta                 90.0
_cell_angle_gamma                90.0
loop_
_atom_site_label
_atom_site_type_symbol
_atom_site_fract_x
_atom_site_fract_y
_atom_site_fract_z
     1  O          0.90794000       0.64394900       0.50009000
     2  O          0.09206000       0.35605100       0.00009000
     3  O          0.59206000       0.14394900       0.00009000
     4  O          0.40794000       0.85605100       0.50009000
     5  O          0.59864000       0.71442100       0.21899000
     6  O          0.40136000       0.28557900       0.71899000
     7  O          0.90136000       0.21442100       0.71899000
     8  O          0.09864000       0.78557900       0.21899000
     9  N          0.78074000       0.67794110       0.83481000
    10  N          0.21926000       0.32205890       0.33481000
    11  N          0.71926000       0.17794110       0.33481000
    12  N          0.28074000       0.82205890       0.83481000
    13  H          0.72500000       0.67400000       0.97300000
    14  H          0.27500000       0.32600000       0.47300000
    15  H          0.77500000       0.17400000       0.47300000
    16  H          0.22500000       0.82600000       0.97300000
    17  N          0.81794000       0.72247110       0.75209000
    18  N          0.18206000       0.27752890       0.25209000
    19  N          0.68206000       0.22247110       0.25209000
    20  N          0.31794000       0.77752890       0.75209000
    21  N          0.60944000       0.79527110       0.19469000
    22  N          0.39056000       0.20472890       0.69469000
    23  N          0.89056000       0.29527110       0.69469000
    24  N          0.10944000       0.70472890       0.19469000
    25  H          0.54860000       0.80230000       0.32390000
    26  H          0.45140000       0.19770000       0.82390000
    27  H          0.95140000       0.30230000       0.82390000
    28  H          0.04860000       0.69770000       0.32390000
    29  C          0.78715000       0.59389110       0.81108000
    30  C          0.21285000       0.40610890       0.31108000
    31  C          0.71285000       0.09389110       0.31108000
    32  C          0.28715000       0.90610890       0.81108000
    33  C          0.85616000       0.55486120       0.69247000
    34  C          0.14384000       0.44513880       0.19247000
    35  C          0.64384000       0.05486120       0.19247000
    36  C          0.35616000       0.94513880       0.69247000
    37  H          0.92840000       0.55840000       0.55520000
    38  H          0.07160000       0.44160000       0.05520000
    39  H          0.57160000       0.05840000       0.05520000
    40  H          0.42840000       0.94160000       0.55520000
    41  C          0.81577000       0.51022130       0.78201000
    42  C          0.18423000       0.48977870       0.28201000
    43  C          0.68423000       0.01022130       0.28201000
    44  C          0.31577000       0.98977870       0.78201000
    45  H          0.85900000       0.48390000       0.70100000
    46  H          0.14100000       0.51610000       0.20100000
    47  H          0.64100000       0.98390000       0.20100000
    48  H          0.35900000       0.01610000       0.70100000
    49  C          0.71186000       0.50472120      -0.01009000
    50  C          0.28814000       0.49527880       0.48991000
    51  C          0.78814000       0.00472120       0.48991000
    52  C          0.21186000      -0.00472120      -0.01009000
    53  H          0.68730000       0.47490000       0.05020000
    54  H          0.31270000       0.52510000       0.55020000
    55  H          0.81270000       0.97490000       0.55020000
    56  H          0.18730000       0.02510000       0.05020000
    57  C          0.64486000       0.54334140       0.10727000
    58  C          0.35514000       0.45665860       0.60727000
    59  C          0.85514000       0.04334140       0.60727000
    60  C          0.14486000       0.95665860       0.10727000
    61  H          0.57360000       0.53940000       0.24540000
    62  H          0.42640000       0.46060000       0.74540000
    63  H          0.92640000       0.03940000       0.74540000
    64  H          0.07360000       0.96060000       0.24540000
    65  C          0.68236000       0.58848120       0.02171000
    66  C          0.31764000       0.41151880       0.52171000
    67  C          0.81764000       0.08848120       0.52171000
    68  C          0.18236000       0.91151880       0.02171000
    69  H          0.63820000       0.61450000       0.10380000
    70  H          0.36180000       0.38550000       0.60380000
    71  H          0.86180000       0.11450000       0.60380000
    72  H          0.13820000       0.88550000       0.10380000
    73  C          0.83145000       0.64071130       0.69951100
    74  C          0.16855000       0.35928870       0.19951100
    75  C          0.66855000       0.14071130       0.19951100
    76  C          0.33145000       0.85928870       0.69951100
    77  C          0.75455000       0.75561120       0.88661000
    78  C          0.24545000       0.24438880       0.38661000
    79  C          0.74545000       0.25561120       0.38661000
    80  C          0.25455000       0.74438880       0.88661000
    81  C          0.64465000       0.75100140       0.12141000
    82  C          0.35535000       0.24899860       0.62141000
    83  C          0.85535000       0.25100140       0.62141000
    84  C          0.14465000       0.74899860       0.12141000
    85  C          0.68414000       0.82823120       0.03421100
    86  C          0.31586000       0.17176880       0.53421100
    87  C          0.81586000       0.32823120       0.53421100
    88  C          0.18414000       0.67176880       0.03421100
    89  C          0.67625000       0.87673140       0.04561200
    90  C          0.32375000       0.12326860       0.54561200
    91  C          0.82375000       0.37673140       0.54561200
    92  C          0.17625000       0.62326860       0.04561200
    93  H          0.61890000       0.89200000       0.17530000
    94  H          0.38110000       0.10800000       0.67530000
    95  H          0.88110000       0.39200000       0.67530000
    96  H          0.11890000       0.60800000       0.17530000
    97  C          0.75736000       0.90155140       0.85571200
    98  C          0.24264000       0.09844860       0.35571200
    99  C          0.74264000       0.40155140       0.35571200
   100  C          0.25736000       0.59844860       0.85571200
   101  H          0.75180000       0.93410000       0.85710000
   102  H          0.24820000       0.06590000       0.35710000
   103  H          0.74820000       0.43410000       0.35710000
   104  H          0.25180000       0.56590000       0.85710000
   105  C          0.84605000       0.87959130       0.66441100
   106  C          0.15395000       0.12040870       0.16441100
   107  C          0.65395000       0.37959130       0.16441100
   108  C          0.34605000       0.62040870       0.66441100
   109  H          0.89860000       0.89740000       0.53970000
   110  H          0.10140000       0.10260000       0.03970000
   111  H          0.60140000       0.39740000       0.03970000
   112  H          0.39860000       0.60260000       0.53970000
   113  C          0.85694000       0.83080130       0.65781100
   114  C          0.14306000       0.16919870       0.15781100
   115  C          0.64306000       0.33080130       0.15781100
   116  C          0.35694000       0.66919870       0.65781100
   117  H          0.91880000       0.81570000       0.53260000
   118  H          0.08120000       0.18430000       0.03260000
   119  H          0.58120000       0.31570000       0.03260000
   120  H          0.41880000       0.68430000       0.53260000
   121  C          0.77345000       0.80574130       0.84171000
   122  C          0.22655000       0.19425870       0.34171000
   123  C          0.72655000       0.30574130       0.34171000
   124  C          0.27345000       0.69425870       0.84171000
