data_MAVGEW
_symmetry_space_group_name_H-M    'P1'
_symmetry_Int_Tables_number       1
loop_
_symmetry_equiv_pos_site_id
_symmetry_equiv_pos_as_xyz
1 x,y,z
_cell_length_a                   8.92796
_cell_length_b                   12.10999
_cell_length_c                   11.75679
_cell_angle_alpha                90.0
_cell_angle_beta                 95.11701
_cell_angle_gamma                90.0
loop_
_atom_site_label
_atom_site_type_symbol
_atom_site_fract_x
_atom_site_fract_y
_atom_site_fract_z
     1  O          0.36080100       0.48270100       0.65190100
     2  O          0.63919900       0.98270100       0.84809900
     3  O          0.63919900       0.51729900       0.34809900
     4  O          0.36080100       0.01729900       0.15190100
     5  O          0.31410100       0.70660100       0.29650100
     6  O          0.68589900       0.20660100       0.20349900
     7  O          0.68589900       0.29339900       0.70349900
     8  O          0.31410100       0.79339900       0.79650100
     9  N          0.34532000       0.58530100       0.49100100
    10  N          0.65468000       0.08530100       0.00899900
    11  N          0.65468000       0.41469900       0.50899900
    12  N          0.34532000       0.91469900      -0.00899900
    13  N          0.44910100       0.65900100       0.53650100
    14  N          0.55089900       0.15900100       0.96349900
    15  N          0.55089900       0.34099900       0.46349900
    16  N          0.44910100       0.84099900       0.03650100
    17  N          0.48302000       0.85170100       0.31510100
    18  N          0.51698000       0.35170100       0.18489900
    19  N          0.51698000       0.14829900       0.68489900
    20  N          0.48302000       0.64829900       0.81510100
    21  C          0.18682000       0.42510100       0.49830100
    22  C          0.81318000       0.92510100       0.00169900
    23  C          0.81318000       0.57489900       0.50169900
    24  C          0.18682000       0.07489900      -0.00169900
    25  C          0.11482000       0.35340100       0.56622000
    26  C          0.88518000       0.85340100       0.93378000
    27  C          0.88518000       0.64659900       0.43378000
    28  C          0.11482000       0.14659900       0.06622000
    29  C          0.00042000       0.28622000       0.51962000
    30  C         -0.00042000       0.78622000       0.98038000
    31  C         -0.00042000       0.71378000       0.48038000
    32  C          0.00042000       0.21378000       0.01962000
    33  C          0.95768000       0.28952000       0.40562000
    34  C          0.04232000       0.78952000       0.09438000
    35  C          0.04232000       0.71048000       0.59438000
    36  C          0.95768000       0.21048000       0.90562000
    37  C          0.02872000       0.35932000       0.33702000
    38  C          0.97128000       0.85932000       0.16298000
    39  C          0.97128000       0.64068000       0.66298000
    40  C          0.02872000       0.14068000       0.83702000
    41  C          0.14372000       0.42722000       0.38232000
    42  C          0.85628000       0.92722000       0.11768000
    43  C          0.85628000       0.57278000       0.61768000
    44  C          0.14372000       0.07278000       0.88232000
    45  C          0.30522000       0.49840100       0.55480100
    46  C          0.69478000      -0.00159900       0.94519900
    47  C          0.69478000       0.50159900       0.44519900
    48  C          0.30522000       0.00159900       0.05480100
    49  C          0.47942000       0.73970100       0.47060100
    50  C          0.52058000       0.23970100       0.02939900
    51  C          0.52058000       0.26029900       0.52939900
    52  C          0.47942000       0.76029900       0.97060100
    53  C          0.41312000       0.76110100       0.35020100
    54  C          0.58688000       0.26110100       0.14979900
    55  C          0.58688000       0.23889900       0.64979900
    56  C          0.41312000       0.73889900       0.85020100
    57  C          0.58622000       0.89440100       0.40130100
    58  C          0.41378000       0.39440100       0.09869900
    59  C          0.41378000       0.10559900       0.59869900
    60  C          0.58622000       0.60559900       0.90130100
    61  C          0.67552000       0.98610100       0.39932000
    62  C          0.32448000       0.48610100       0.10068000
    63  C          0.32448000       0.01389900       0.60068000
    64  C          0.67552000       0.51389900       0.89932000
    65  C          0.76882000       0.00912000       0.49602000
    66  C          0.23118000       0.50912000       0.00398000
    67  C          0.23118000      -0.00912000       0.50398000
    68  C          0.76882000       0.49088000      -0.00398000
    69  C          0.77042000       0.94452000       0.59282000
    70  C          0.22958000       0.44452000       0.90718000
    71  C          0.22958000       0.05548000       0.40718000
    72  C          0.77042000       0.55548000       0.09282000
    73  C          0.67872000       0.85320100       0.59490100
    74  C          0.32128000       0.35320100       0.90509900
    75  C          0.32128000       0.14679900       0.40509900
    76  C          0.67872000       0.64679900       0.09490100
    77  C          0.58712000       0.82720100       0.49820100
    78  C          0.41288000       0.32720100       0.00179900
    79  C          0.41288000       0.17279900       0.50179900
    80  C          0.58712000       0.67279900      -0.00179900
    81  H          0.30220000       0.59831400       0.42401000
    82  H          0.69780000       0.09831400       0.07599000
    83  H          0.69780000       0.40168600       0.57599000
    84  H          0.30220000       0.90168600       0.92401000
    85  H          0.45820000       0.88031600       0.24901000
    86  H          0.54180000       0.38031600       0.25099000
    87  H          0.54180000       0.11968400       0.75099000
    88  H          0.45820000       0.61968400       0.74901000
    89  H          0.14360000       0.35010000       0.64410000
    90  H          0.85640000       0.85010000       0.85590000
    91  H          0.85640000       0.64990000       0.35590000
    92  H          0.14360000       0.14990000       0.14410000
    93  H          0.95220000       0.23840000       0.56640000
    94  H          0.04780000       0.73840000       0.93360000
    95  H          0.04780000       0.76160000       0.43360000
    96  H          0.95220000       0.26160000       0.06640000
    97  H          0.88040000       0.24430000       0.37450000
    98  H          0.11960000       0.74430000       0.12550000
    99  H          0.11960000       0.75570000       0.62550000
   100  H          0.88040000       0.25570000       0.87450000
   101  H         -0.00050000       0.36140000       0.25910000
   102  H          0.00050000       0.86140000       0.24090000
   103  H          0.00050000       0.63860000       0.74090000
   104  H         -0.00050000       0.13860000       0.75910000
   105  H          0.19200000       0.47420000       0.33480000
   106  H          0.80800000       0.97420000       0.16520000
   107  H          0.80800000       0.52580000       0.66520000
   108  H          0.19200000       0.02580000       0.83480000
   109  H          0.67330000       0.03120000       0.33520000
   110  H          0.32670000       0.53120000       0.16480000
   111  H          0.32670000       0.96880000       0.66480000
   112  H          0.67330000       0.46880000       0.83520000
   113  H          0.83260000       0.06980000       0.49610000
   114  H          0.16740000       0.56980000       0.00390000
   115  H          0.16740000       0.93020000       0.50390000
   116  H          0.83260000       0.43020000      -0.00390000
   117  H          0.83380000       0.96270000       0.65710000
   118  H          0.16620000       0.46270000       0.84290000
   119  H          0.16620000       0.03730000       0.34290000
   120  H          0.83380000       0.53730000       0.15710000
   121  H          0.67880000       0.80990000       0.66020000
   122  H          0.32120000       0.30990000       0.83980000
   123  H          0.32120000       0.19010000       0.33980000
   124  H          0.67880000       0.69010000       0.16020000
