data_MCHTEP
_symmetry_space_group_name_H-M    'P1'
_symmetry_Int_Tables_number       1
loop_
_symmetry_equiv_pos_site_id
_symmetry_equiv_pos_as_xyz
1 x,y,z
_cell_length_a                   9.5951
_cell_length_b                   4.3011
_cell_length_c                   7.9701
_cell_angle_alpha                114.322
_cell_angle_beta                 94.972
_cell_angle_gamma                106.152
loop_
_atom_site_label
_atom_site_type_symbol
_atom_site_fract_x
_atom_site_fract_y
_atom_site_fract_z
     1  Cl         0.33020000       0.46820000       0.06400000
     2  Cl         0.66980000       0.53180000       0.93600000
     3  C          0.08490000       0.84220000       0.87170000
     4  C          0.91510000       0.15780000       0.12830000
     5  C          0.06650000       0.35660000       0.14730000
     6  C          0.93350000       0.64340000       0.85270000
     7  C          0.14690000       0.19640000       0.02190000
     8  C          0.85310000       0.80360000       0.97810000
     9  C          0.16210000       0.65270000       0.73240000
    10  C          0.83790000       0.34730000       0.26760000
    11  C          0.37770000       0.65360000       0.61300000
    12  C          0.62230000       0.34640000       0.38700000
    13  H          0.10000000       0.81600000       0.33300000
    14  H          0.90000000       0.18400000       0.66700000
    15  H          0.47000000       0.82100000       0.65100000
    16  H          0.53000000       0.17900000       0.34900000
    17  H          0.37900000       0.44600000       0.62200000
    18  H          0.62100000       0.55400000       0.37800000
    19  H          0.32600000       0.54300000       0.48800000
    20  H          0.67400000       0.45700000       0.51200000
    21  O          0.13780000       0.69780000       0.28240000
    22  O          0.86220000       0.30220000       0.71760000
    23  O          0.10620000       0.33740000       0.61490000
    24  O          0.89380000       0.66260000       0.38510000
    25  O          0.29840000       0.84480000       0.74130000
    26  O          0.70160000       0.15520000       0.25870000
