data_MCHTEP05
_symmetry_space_group_name_H-M    'P1'
_symmetry_Int_Tables_number       1
loop_
_symmetry_equiv_pos_site_id
_symmetry_equiv_pos_as_xyz
1 x,y,z
_cell_length_a                   3.8122
_cell_length_b                   8.0372
_cell_length_c                   9.3632
_cell_angle_alpha                70.832
_cell_angle_beta                 89.233
_cell_angle_gamma                87.223
loop_
_atom_site_label
_atom_site_type_symbol
_atom_site_fract_x
_atom_site_fract_y
_atom_site_fract_z
     1  C          0.84106000       0.16432000       0.91548000
     2  C          0.15894000       0.83568000       0.08452000
     3  C          0.91946000       0.12862000       0.06902000
     4  C          0.08054000       0.87138000       0.93098000
     5  C          0.91676000       0.03432000       0.84828000
     6  C          0.08324000       0.96568000       0.15172000
     7  C          0.68616000       0.34402000       0.83338000
     8  C          0.31384000       0.65598000       0.16662000
     9  C          0.67546000       0.59722000       0.61768000
    10  C          0.32454000       0.40278000       0.38232000
    11  O          0.86047000       0.24512000       0.14391000
    12  O          0.13953000       0.75488000       0.85609000
    13  O          0.47707000       0.41881000       0.89329000
    14  O          0.52293000       0.58119000       0.10671000
    15  O          0.80607000       0.41611000       0.69399000
    16  O          0.19393000       0.58389000       0.30601000
    17  Cl         0.79465100       0.06276400       0.66473600
    18  Cl         0.20534900       0.93723600       0.33526400
    19  H          0.75262400       0.31563700       0.10223000
    20  H          0.24737600       0.68436300       0.89777000
    21  H          0.75613600       0.67013500       0.66927300
    22  H          0.24386400       0.32986500       0.33072700
    23  H          0.45453500       0.58563100       0.61827500
    24  H          0.54546500       0.41436900       0.38172500
    25  H          0.80864200       0.61773300       0.52867300
    26  H          0.19135800       0.38226700       0.47132700
