data_MCHTEP01
_symmetry_space_group_name_H-M    'P1'
_symmetry_Int_Tables_number       1
loop_
_symmetry_equiv_pos_site_id
_symmetry_equiv_pos_as_xyz
1 x,y,z
_cell_length_a                   9.8424
_cell_length_b                   7.8413
_cell_length_c                   10.5765
_cell_angle_alpha                116.383
_cell_angle_beta                 124.173
_cell_angle_gamma                88.983
loop_
_atom_site_label
_atom_site_type_symbol
_atom_site_fract_x
_atom_site_fract_y
_atom_site_fract_z
     1  Cl         0.71590000       0.93670000       0.62430000
     2  Cl         0.28410000       0.06330000       0.37570000
     3  C          0.03320000       0.95120000       0.87830000
     4  C          0.96680000       0.04880000       0.12170000
     5  C          0.83880000       0.02240000       0.95270000
     6  C          0.16120000      -0.02240000       0.04730000
     7  C          0.87430000      -0.02760000       0.83410000
     8  C          0.12570000       0.02760000       0.16590000
     9  C          0.07070000       0.88670000       0.74860000
    10  C          0.92930000       0.11330000       0.25140000
    11  C          0.19780000       0.00120000       0.65470000
    12  C          0.80220000      -0.00120000       0.34530000
    13  H          0.66600000       0.10900000       0.86500000
    14  H          0.33400000       0.89100000       0.13500000
    15  H          0.28600000       0.96000000       0.70000000
    16  H          0.71400000       0.04000000       0.30000000
    17  H          0.10700000       0.89600000       0.53300000
    18  H          0.89300000       0.10400000       0.46700000
    19  H          0.20400000       0.11900000       0.64500000
    20  H          0.79600000       0.88100000       0.35500000
    21  O          0.68440000       0.04060000       0.91550000
    22  O          0.31560000       0.95940000       0.08450000
    23  O          0.05160000       0.71590000       0.65390000
    24  O          0.94840000       0.28410000       0.34610000
    25  O          0.13480000       0.04210000       0.75750000
    26  O          0.86520000       0.95790000       0.24250000
    27  Cl         0.27200000       0.56370000       0.37800000
    28  Cl         0.72800000       0.43630000       0.62200000
    29  C          0.16940000       0.51540000       0.06470000
    30  C          0.83060000       0.48460000       0.93530000
    31  C          0.95120000       0.51000000       0.10490000
    32  C          0.04880000       0.49000000       0.89510000
    33  C          0.12080000       0.52620000       0.16650000
    34  C          0.87920000       0.47380000       0.83350000
    35  C          0.35400000       0.54370000       0.13610000
    36  C          0.64600000       0.45630000       0.86390000
    37  C          0.57680000       0.39340000       0.19930000
    38  C          0.42320000       0.60660000       0.80070000
    39  H          0.96100000       0.47400000       0.26300000
    40  H          0.03900000       0.52600000       0.73700000
    41  H          0.59900000       0.24900000       0.16800000
    42  H          0.40100000       0.75100000       0.83200000
    43  H          0.60100000       0.42700000       0.11700000
    44  H          0.39900000       0.57300000       0.88300000
    45  H          0.64200000       0.50000000       0.30800000
    46  H          0.35800000       0.50000000       0.69200000
    47  O          0.89660000       0.52670000       0.20110000
    48  O          0.10340000       0.47330000       0.79890000
    49  O          0.44720000       0.69420000       0.18550000
    50  O          0.55280000       0.30580000       0.81450000
    51  O          0.40130000       0.38710000       0.13880000
    52  O          0.59870000       0.61290000       0.86120000
