data_MEKMUO02
_symmetry_space_group_name_H-M    'P1'
_symmetry_Int_Tables_number       1
loop_
_symmetry_equiv_pos_site_id
_symmetry_equiv_pos_as_xyz
1 x,y,z
_cell_length_a                   7.24819
_cell_length_b                   8.65421
_cell_length_c                   11.849614
_cell_angle_alpha                76.1154
_cell_angle_beta                 89.4774
_cell_angle_gamma                73.8894
loop_
_atom_site_label
_atom_site_type_symbol
_atom_site_fract_x
_atom_site_fract_y
_atom_site_fract_z
     1  O          0.68763000       0.56742000       0.34830170
     2  O          0.31237000       0.43258000       0.65169830
     3  O          0.82993000       0.42393000       0.22462000
     4  O          0.17007000       0.57607000       0.77538000
     5  O          0.20793000       0.84473000       0.47111180
     6  O          0.79207000       0.15527000       0.52888820
     7  O          0.01983000       0.82463000       0.33365190
     8  O          0.98017000       0.17537000       0.66634810
     9  O          0.16473000       0.67033000       0.17352000
    10  O          0.83527000       0.32967000       0.82648000
    11  H          0.08100000       0.72150000       0.20860000
    12  H          0.91900000       0.27850000       0.79140000
    13  N          0.57853000       0.91033000       0.77482000
    14  N          0.42147000       0.08967000       0.22518000
    15  C          0.81115000       0.71544000       0.93583000
    16  C          0.18885000       0.28456000       0.06417000
    17  H          0.71490000       0.72040000      -0.00800000
    18  H          0.28510000       0.27960000       0.00800000
    19  H          0.93410000       0.69900000       0.97350000
    20  H          0.06590000       0.30100000       0.02650000
    21  H          0.81630000       0.62470000       0.90130000
    22  H          0.18370000       0.37530000       0.09870000
    23  C          0.76104000       0.87584000       0.84223000
    24  C          0.23896000       0.12416000       0.15777000
    25  H          0.75410000       0.96650000       0.87830000
    26  H          0.24590000       0.03350000       0.12170000
    27  H          0.86390000       0.87240000       0.78910000
    28  H          0.13610000       0.12760000       0.21090000
    29  C          0.56814000       0.84634000       0.68162000
    30  C          0.43186000       0.15366000       0.31838000
    31  C          0.39164000       0.87614000       0.61962000
    32  C          0.60836000       0.12386000       0.38038000
    33  H          0.27840000       0.93950000       0.64250000
    34  H          0.72160000       0.06050000       0.35750000
    35  C          0.38814000       0.81104000       0.52552000
    36  C          0.61186000       0.18896000       0.47448000
    37  C          0.55294000       0.71723000       0.48562000
    38  C          0.44706000       0.28277000       0.51438000
    39  C          0.52794000       0.65903000       0.38662000
    40  C          0.47206000       0.34097000       0.61338000
    41  C          0.35014000       0.69513000       0.33143000
    42  C          0.64986000       0.30487000       0.66857000
    43  C          0.33554000       0.63674000       0.22893000
    44  C          0.66446000       0.36326000       0.77107000
    45  C          0.49614000       0.54794000       0.18913000
    46  C          0.50386000       0.45206000       0.81087000
    47  H          0.48590000       0.51390000       0.12130000
    48  H          0.51410000       0.48610000       0.87870000
    49  C          0.67845000       0.50574000       0.24773000
    50  C          0.32155000       0.49426000       0.75227000
    51  C          0.18474000       0.78904000       0.37573000
    52  C          0.81526000       0.21096000       0.62427000
    53  C          0.73634000       0.74924000       0.64143000
    54  C          0.26366000       0.25076000       0.35857000
    55  H          0.85460000       0.72700000       0.68110000
    56  H          0.14540000       0.27300000       0.31890000
    57  C          0.72844000       0.68854000       0.54723000
    58  C          0.27156000       0.31146000       0.45277000
    59  H          0.84110000       0.62670000       0.52270000
    60  H          0.15890000       0.37330000       0.47730000
    61  C          0.40544000       0.00374000       0.81773000
    62  C          0.59456000      -0.00374000       0.18227000
    63  H          0.32270000       0.07810000       0.75160000
    64  H          0.67730000       0.92190000       0.24840000
    65  H          0.44110000       0.07140000       0.86330000
    66  H          0.55890000       0.92860000       0.13670000
    67  C          0.29175000       0.89845000       0.89193000
    68  C          0.70825000       0.10155000       0.10807000
    69  H          0.25300000       0.83230000       0.84720000
    70  H          0.74700000       0.16770000       0.15280000
    71  H          0.17960000       0.96920000       0.91610000
    72  H          0.82040000       0.03080000       0.08390000
    73  H          0.37040000       0.82690000       0.95930000
    74  H          0.62960000       0.17310000       0.04070000
