data_MEKMUO
_symmetry_space_group_name_H-M    'P1'
_symmetry_Int_Tables_number       1
loop_
_symmetry_equiv_pos_site_id
_symmetry_equiv_pos_as_xyz
1 x,y,z
_cell_length_a                   5.17086
_cell_length_b                   26.7994
_cell_length_c                   10.256314
_cell_angle_alpha                90.0
_cell_angle_beta                 101.8695
_cell_angle_gamma                90.0
loop_
_atom_site_label
_atom_site_type_symbol
_atom_site_fract_x
_atom_site_fract_y
_atom_site_fract_z
     1  O          0.25444000       0.33396700       0.38082000
     2  O          0.74556000       0.83396700       0.11918000
     3  O          0.74556000       0.66603300       0.61918000
     4  O          0.25444000       0.16603300       0.88082000
     5  O          0.08005000       0.46975900       0.19743000
     6  O          0.91995000       0.96975900       0.30257000
     7  O          0.91995000       0.53024100       0.80257000
     8  O          0.08005000       0.03024100       0.69743000
     9  H          0.20330000       0.48880000       0.22450000
    10  H          0.79670000       0.98880000       0.27550000
    11  H          0.79670000       0.51120000       0.77550000
    12  H          0.20330000       0.01120000       0.72450000
    13  O          0.78344000       0.44944700       0.48102000
    14  O          0.21656000       0.94944700       0.01898000
    15  O          0.21656000       0.55055300       0.51898000
    16  O          0.78344000       0.05055300       0.98102000
    17  O          0.88245000       0.30221900       0.26533000
    18  O          0.11755000       0.80221900       0.23467000
    19  O          0.11755000       0.69778100       0.73467000
    20  O          0.88245000       0.19778100       0.76533000
    21  O          0.53455000       0.49987800       0.33882000
    22  O          0.46545000      -0.00012200       0.16118000
    23  O          0.46545000       0.50012200       0.66118000
    24  O          0.53455000       0.00012200       0.83882000
    25  N          0.33545000       0.35085900       0.80823000
    26  N          0.66455000       0.85085900       0.69177000
    27  N          0.66455000       0.64914100       0.19177000
    28  N          0.33545000       0.14914100       0.30823000
    29  C          0.96453000       0.38680130       0.22573000
    30  C          0.03547000       0.88680130       0.27427000
    31  C          0.03547000       0.61319870       0.77427000
    32  C          0.96453000       0.11319870       0.72573000
    33  H          0.80830000       0.39170000       0.16350000
    34  H          0.19170000       0.89170000       0.33650000
    35  H          0.19170000       0.60830000       0.83650000
    36  H          0.80830000       0.10830000       0.66350000
    37  C          0.01437000       0.33942130       0.28443000
    38  C         -0.01437000       0.83942130       0.21557000
    39  C         -0.01437000       0.66057870       0.71557000
    40  C          0.01437000       0.16057870       0.78443000
    41  C          0.42236000       0.37284100       0.41203000
    42  C          0.57764000       0.87284100       0.08797000
    43  C          0.57764000       0.62715900       0.58797000
    44  C          0.42236000       0.12715900       0.91203000
    45  C          0.65186000       0.36413100       0.51103000
    46  C          0.34814000       0.86413100      -0.01103000
    47  C          0.34814000       0.63586900       0.48897000
    48  C          0.65186000       0.13586900       0.01103000
    49  C          0.71596000       0.31955110       0.58073000
    50  C          0.28404000       0.81955110       0.91927000
    51  C          0.28404000       0.68044890       0.41927000
    52  C          0.71596000       0.18044890       0.08073000
    53  H          0.60410000       0.29220000       0.56040000
    54  H          0.39590000       0.79220000       0.93960000
    55  H          0.39590000       0.70780000       0.43960000
    56  H          0.60410000       0.20780000       0.06040000
    57  C          0.93626000       0.31520110       0.67703000
    58  C          0.06374000       0.81520110       0.82297000
    59  C          0.06374000       0.68479890       0.32297000
    60  C          0.93626000       0.18479890       0.17703000
    61  H         -0.02810000       0.28500000       0.72190000
    62  H          0.02810000       0.78500000       0.77810000
    63  H          0.02810000       0.71500000       0.27810000
    64  H         -0.02810000       0.21500000       0.22190000
    65  C          0.11436000       0.35561100       0.71113000
    66  C          0.88564000       0.85561100       0.78887000
    67  C          0.88564000       0.64438900       0.28887000
    68  C          0.11436000       0.14438900       0.21113000
    69  C          0.51126000       0.39311120       0.84773000
    70  C          0.48874000       0.89311120       0.65227000
    71  C          0.48874000       0.60688880       0.15227000
    72  C          0.51126000       0.10688880       0.34773000
    73  H          0.53740000       0.41030000       0.76820000
    74  H          0.46260000       0.91030000       0.73180000
    75  H          0.46260000       0.58970000       0.23180000
    76  H          0.53740000       0.08970000       0.26820000
    77  H          0.68170000       0.38070000       0.89380000
    78  H          0.31830000       0.88070000       0.60620000
    79  H          0.31830000       0.61930000       0.10620000
    80  H          0.68170000       0.11930000       0.39380000
    81  C          0.41128000       0.43018130       0.93684000
    82  C          0.58872000       0.93018130       0.56316000
    83  C          0.58872000       0.56981870       0.06316000
    84  C          0.41128000       0.06981870       0.43684000
    85  H          0.25240000       0.44550000       0.88850000
    86  H          0.74760000       0.94550000       0.61150000
    87  H          0.74760000       0.55450000       0.11150000
    88  H          0.25240000       0.05450000       0.38850000
    89  H          0.54310000       0.45530000       0.96490000
    90  H          0.45690000       0.95530000       0.53510000
    91  H          0.45690000       0.54470000       0.03510000
    92  H          0.54310000       0.04470000       0.46490000
    93  H          0.37460000       0.41320000       0.01340000
    94  H          0.62540000       0.91320000       0.48660000
    95  H          0.62540000       0.58680000      -0.01340000
    96  H          0.37460000       0.08680000       0.51340000
    97  C          0.13256000       0.42535120       0.25533000
    98  C          0.86744000       0.92535120       0.24467000
    99  C          0.86744000       0.57464880       0.74467000
   100  C          0.13256000       0.07464880       0.75533000
   101  C          0.37496000       0.41829110       0.35253000
   102  C          0.62504000       0.91829110       0.14747000
   103  C          0.62504000       0.58170890       0.64747000
   104  C          0.37496000       0.08170890       0.85253000
   105  C          0.55806000       0.45782110       0.38693000
   106  C          0.44194000       0.95782110       0.11307000
   107  C          0.44194000       0.54217890       0.61307000
   108  C          0.55806000       0.04217890       0.88693000
   109  C          0.82866000       0.40381100       0.54453000
   110  C          0.17134000       0.90381100       0.95547000
   111  C          0.17134000       0.59618900       0.45547000
   112  C          0.82866000       0.09618900       0.04453000
   113  C          0.05476000       0.40082100       0.64103000
   114  C          0.94524000       0.90082100       0.85897000
   115  C          0.94524000       0.59917900       0.35897000
   116  C          0.05476000       0.09917900       0.14103000
   117  H          0.16700000       0.42810000       0.66000000
   118  H          0.83300000       0.92810000       0.84000000
   119  H          0.83300000       0.57190000       0.34000000
   120  H          0.16700000       0.07190000       0.16000000
   121  C          0.39206000       0.30480120       0.88633000
   122  C          0.60794000       0.80480120       0.61367000
   123  C          0.60794000       0.69519880       0.11367000
   124  C          0.39206000       0.19519880       0.38633000
   125  H          0.58030000       0.30320000       0.92320000
   126  H          0.41970000       0.80320000       0.57680000
   127  H          0.41970000       0.69680000       0.07680000
   128  H          0.58030000       0.19680000       0.42320000
   129  H          0.34700000       0.27650000       0.82710000
   130  H          0.65300000       0.77650000       0.67290000
   131  H          0.65300000       0.72350000       0.17290000
   132  H          0.34700000       0.22350000       0.32710000
   133  C          0.24568000       0.30035140      -0.00196000
   134  C          0.75432000       0.80035140       0.50196000
   135  C          0.75432000       0.69964860       0.00196000
   136  C          0.24568000       0.19964860       0.49804000
   137  H          0.30380000       0.32610000       0.06250000
   138  H          0.69620000       0.82610000       0.43750000
   139  H          0.69620000       0.67390000       0.93750000
   140  H          0.30380000       0.17390000       0.56250000
   141  H          0.28020000       0.26830000       0.03960000
   142  H          0.71980000       0.76830000       0.46040000
   143  H          0.71980000       0.73170000       0.96040000
   144  H          0.28020000       0.23170000       0.53960000
   145  H          0.05950000       0.30390000       0.96330000
   146  H          0.94050000       0.80390000       0.53670000
   147  H          0.94050000       0.69610000       0.03670000
   148  H          0.05950000       0.19610000       0.46330000
