data_MEKMUO01
_symmetry_space_group_name_H-M    'P1'
_symmetry_Int_Tables_number       1
loop_
_symmetry_equiv_pos_site_id
_symmetry_equiv_pos_as_xyz
1 x,y,z
_cell_length_a                   5.17233
_cell_length_b                   10.20687
_cell_length_c                   13.24841
_cell_angle_alpha                82.5733
_cell_angle_beta                 86.4633
_cell_angle_gamma                78.3673
loop_
_atom_site_label
_atom_site_type_symbol
_atom_site_fract_x
_atom_site_fract_y
_atom_site_fract_z
     1  O          0.71745000       0.33802000       0.83772000
     2  O          0.28255000       0.66198000       0.16228000
     3  O          0.20745000       0.46693000       0.60212000
     4  O          0.79255000       0.53307000       0.39788000
     5  O          0.91526000       0.19043000       0.56202000
     6  O          0.08474000       0.80957000       0.43798000
     7  H          0.79550000       0.22550000       0.52120000
     8  H          0.20450000       0.77450000       0.47880000
     9  O          0.46626000       0.33853000       0.49982000
    10  O          0.53374000       0.66147000       0.50018000
    11  O          0.08776000       0.21393000       0.90152000
    12  O          0.91224000       0.78607000       0.09848000
    13  N          0.63694000       0.76573000       0.80142000
    14  N          0.36306000       0.23427000       0.19858000
    15  C          0.85963000       0.67153000       0.79153000
    16  C          0.14037000       0.32847000       0.20847000
    17  C          0.92313000       0.61353000       0.69913000
    18  C          0.07687000       0.38647000       0.30087000
    19  H          0.81180000       0.63960000       0.64260000
    20  H          0.18820000       0.36040000       0.35740000
    21  C          0.43738000       0.37454000       0.58483000
    22  C          0.56262000       0.62546000       0.41517000
    23  C          0.60968000       0.33144000       0.66653000
    24  C          0.39032000       0.66856000       0.33347000
    25  C          0.46393000       0.81664000       0.71593000
    26  C          0.53607000       0.18336000       0.28407000
    27  H          0.28900000       0.85950000       0.74290000
    28  H          0.71100000       0.14050000       0.25710000
    29  H          0.43900000       0.73940000       0.68200000
    30  H          0.56100000       0.26060000       0.31800000
    31  C          0.72592000       0.95244000       0.89023000
    32  C          0.27408000       0.04756000       0.10977000
    33  H          0.66880000       0.02060000       0.83270000
    34  H          0.33120000       0.97940000       0.16730000
    35  H          0.91630000       0.91780000       0.88260000
    36  H          0.08370000       0.08220000       0.11740000
    37  H          0.68790000      -0.00700000       0.95390000
    38  H          0.31210000       0.00700000       0.04610000
    39  C          0.32508000       0.47564000       0.77653000
    40  C          0.67492000       0.52436000       0.22347000
    41  C          0.15158000       0.51824000       0.69413000
    42  C          0.84842000       0.48176000       0.30587000
    43  C          0.03528000       0.62694000       0.87363000
    44  C          0.96472000       0.37306000       0.12637000
    45  H         -0.00520000       0.66470000       0.93580000
    46  H          0.00520000       0.33530000       0.06420000
    47  C          0.57802000       0.83694000       0.89233000
    48  C          0.42198000       0.16306000       0.10767000
    49  H          0.62610000       0.77200000       0.95370000
    50  H          0.37390000       0.22800000       0.04630000
    51  H          0.38580000       0.87310000       0.89760000
    52  H          0.61420000       0.12690000       0.10240000
    53  C          0.56531000       0.91804000       0.63653000
    54  C          0.43469000       0.08196000       0.36347000
    55  H          0.43520000       0.94990000       0.58360000
    56  H          0.56480000       0.05010000       0.41640000
    57  H          0.73270000       0.87480000       0.60560000
    58  H          0.26730000       0.12520000       0.39440000
    59  H          0.59340000      -0.00540000       0.66920000
    60  H          0.40660000       0.00540000       0.33080000
    61  C          0.55618000       0.37904000       0.75763000
    62  C          0.44382000       0.62096000       0.24237000
    63  C          0.96188000       0.24274000       0.82653000
    64  C          0.03812000       0.75726000       0.17347000
    65  C          0.85468000       0.23644000       0.65123000
    66  C          0.14532000       0.76356000       0.34877000
    67  C          0.25558000       0.53314000       0.86513000
    68  C          0.74442000       0.46686000       0.13487000
    69  H          0.36620000       0.50580000       0.92170000
    70  H          0.63380000       0.49420000       0.07830000
    71  C          0.01728000       0.19664000       0.73013000
    72  C         -0.01728000       0.80336000       0.26987000
    73  H          0.17730000       0.13440000       0.72020000
    74  H          0.82270000       0.86560000       0.27980000
