data_MELFIT06
_symmetry_space_group_name_H-M    'P1'
_symmetry_Int_Tables_number       1
loop_
_symmetry_equiv_pos_site_id
_symmetry_equiv_pos_as_xyz
1 x,y,z
_cell_length_a                   12.26267
_cell_length_b                   13.78728
_cell_length_c                   14.74059
_cell_angle_alpha                101.3961
_cell_angle_beta                 108.9211
_cell_angle_gamma                98.8471
loop_
_atom_site_label
_atom_site_type_symbol
_atom_site_fract_x
_atom_site_fract_y
_atom_site_fract_z
     1  C          0.36340190       0.37796170       0.86722840
     2  C          0.63659810       0.62203830       0.13277160
     3  C          0.36797180       0.35542170       0.95594840
     4  C          0.63202820       0.64457830       0.04405160
     5  C          0.46838180       0.32862160       0.01444150
     6  C          0.53161820       0.67137840       0.98555850
     7  C          0.55872000       0.32392000       0.97728820
     8  C          0.44128000       0.67608000       0.02271180
     9  H          0.62730000       0.30790000       0.01480000
    10  H          0.37270000       0.69210000       0.98520000
    11  C          0.55022000       0.34192000       0.88730810
    12  C          0.44978000       0.65808000       0.11269190
    13  H          0.61140000       0.33530000       0.86400000
    14  H          0.38860000       0.66470000       0.13600000
    15  C          0.45322000       0.36950190       0.83128820
    16  C          0.54678000       0.63049810       0.16871180
    17  H          0.44790000       0.38220000       0.77050000
    18  H          0.55210000       0.61780000       0.22950000
    19  C          0.56622000       0.25217190       0.14622170
    20  C          0.43378000       0.74782810       0.85377830
    21  H          0.64220000       0.30110000       0.17680000
    22  H          0.35780000       0.69890000       0.82320000
    23  H          0.57090000       0.19930000       0.09440000
    24  H          0.42910000       0.80070000       0.90560000
    25  C          0.53862000       0.20594170       0.22353160
    26  C          0.46138000       0.79405830       0.77646840
    27  H          0.46600000       0.15290000       0.19120000
    28  H          0.53400000       0.84710000       0.80880000
    29  H          0.60200000       0.17460000       0.25330000
    30  H          0.39800000       0.82540000       0.74670000
    31  C          0.43392000       0.33113170       0.25554160
    32  C          0.56608000       0.66886830       0.74445840
    33  H          0.42480000       0.38190000       0.30670000
    34  H          0.57520000       0.61810000       0.69330000
    35  H          0.35870000       0.28160000       0.22090000
    36  H          0.64130000       0.71840000       0.77910000
    37  C          0.46722000       0.38135170       0.18334160
    38  C          0.53278000       0.61864830       0.81665840
    39  H          0.40860000       0.41810000       0.15610000
    40  H          0.59140000       0.58190000       0.84390000
    41  H          0.54360000       0.42950000       0.21720000
    42  H          0.45640000       0.57050000       0.78280000
    43  C          0.49272000       0.23375180       0.37239160
    44  C          0.50728000       0.76624820       0.62760840
    45  H          0.42480000       0.17680000       0.33590000
    46  H          0.57520000       0.82320000       0.66410000
    47  H          0.46850000       0.28290000       0.41410000
    48  H          0.53150000       0.71710000       0.58590000
    49  C          0.59022000       0.19619190       0.43849160
    50  C          0.40978000       0.80380810       0.56150840
    51  H          0.66320000       0.24890000       0.46650000
    52  H          0.33680000       0.75110000       0.53350000
    53  H          0.60380000       0.13700000       0.39960000
    54  H          0.39620000       0.86300000       0.60040000
    55  C          0.55562000       0.16842000       0.52177170
    56  C          0.44438000       0.83158000       0.47822830
    57  H          0.53570000       0.22650000       0.55640000
    58  H          0.46430000       0.77350000       0.44360000
    59  H          0.48520000       0.11300000       0.49290000
    60  H          0.51480000       0.88700000       0.50710000
    61  C          0.65012000       0.13732000       0.59540170
    62  C          0.34988000       0.86268000       0.40459830
    63  H          0.66880000       0.07700000       0.56340000
    64  H          0.33120000       0.92300000       0.43660000
    65  H          0.72170000       0.19150000       0.62580000
    66  H          0.27830000       0.80850000       0.37420000
    67  C          0.67050190       0.08410180       0.74452160
    68  C          0.32949810       0.91589820       0.25547840
    69  C          0.77842000       0.06142000       0.75357170
    70  C          0.22158000       0.93858000       0.24642830
    71  H          0.81250000       0.07020000       0.70700000
    72  H          0.18750000       0.92980000       0.29300000
    73  C          0.83502000       0.02552000       0.83238170
    74  C          0.16498000       0.97448000       0.16761830
    75  H          0.90790000       0.01030000       0.83810000
    76  H          0.09210000      -0.01030000       0.16190000
    77  C          0.78826180       0.01100180       0.90354160
    78  C          0.21173820      -0.01100180       0.09645840
    79  C          0.67970170       0.03542150       0.89309140
    80  C          0.32029830       0.96457850       0.10690860
    81  C          0.62103190       0.07185160       0.81526150
    82  C          0.37896810       0.92814840       0.18473850
    83  H          0.54880000       0.08820000       0.81000000
    84  H          0.45120000       0.91180000       0.19000000
    85  C          0.84822000       0.97677000      -0.00688000
    86  C          0.15178000       0.02323000       0.00688000
    87  H          0.89470000       0.93030000       0.97620000
    88  H          0.10530000       0.06970000       0.02380000
    89  H          0.90250000       0.03540000       0.04490000
    90  H          0.09750000       0.96460000       0.95510000
    91  C          0.76752000       0.92688000       0.03192000
    92  C          0.23248000       0.07312000       0.96808000
    93  H          0.81240000       0.92740000       0.09970000
    94  H          0.18760000       0.07260000       0.90030000
    95  H          0.73790000       0.85630000      -0.00660000
    96  H          0.26210000       0.14370000       0.00660000
    97  C          0.66471190       0.97031820       0.03223150
    98  C          0.33528810       0.02968180       0.96776850
    99  Cl         0.24325600       0.41769600       0.79877500
   100  Cl         0.75674400       0.58230400       0.20122500
   101  Cl         0.24468500       0.35402600       0.98901500
   102  Cl         0.75531500       0.64597400       0.01098500
   103  N          0.47308150       0.30280130       0.10299120
   104  N          0.52691850       0.69719870       0.89700880
   105  N          0.52515150       0.28076130       0.30136120
   106  N          0.47484850       0.71923870       0.69863880
   107  N          0.62805160       0.02223140       0.96379130
   108  N          0.37194840       0.97776860       0.03620870
   109  H          0.56020000       0.03771700       0.95321600
   110  H          0.43980000       0.96228300       0.04678400
   111  O          0.60308150       0.11674160       0.66837130
   112  O          0.39691850       0.88325840       0.33162870
   113  O          0.61067150       0.95594850       0.08725120
   114  O          0.38932850       0.04405150       0.91274880
   115  C          0.12722000       0.14487180       0.64511180
   116  C          0.87278000       0.85512820       0.35488820
   117  C          0.07022000       0.16285160       0.55445170
   118  C          0.92978000       0.83714840       0.44554830
   119  C          0.12552000       0.16269170       0.48457170
   120  C          0.87448000       0.83730830       0.51542830
   121  C          0.23702000       0.14232000       0.51062000
   122  C          0.76298000       0.85768000       0.48938000
   123  H          0.27570000       0.14090000       0.46570000
   124  H          0.72430000       0.85910000       0.53430000
   125  C          0.29223000       0.12413000       0.60092000
   126  C          0.70777000       0.87587000       0.39908000
   127  H          0.36740000       0.11110000       0.61610000
   128  H          0.63260000       0.88890000       0.38390000
   129  C          0.23752000       0.12502000       0.66902000
   130  C          0.76248000       0.87498000       0.33098000
   131  H          0.27460000       0.11230000       0.72990000
   132  H          0.72540000       0.88770000       0.27010000
   133  C          0.14682000       0.22332000       0.34345180
   134  C          0.85318000       0.77668000       0.65654820
   135  H          0.16480000       0.16480000       0.30750000
   136  H          0.83520000       0.83520000       0.69250000
   137  H          0.22090000       0.26840000       0.39060000
   138  H          0.77910000       0.73160000       0.60940000
   139  C          0.08222000       0.27838190       0.27143170
   140  C          0.91778000       0.72161810       0.72856830
   141  H          0.06890000       0.33900000       0.30840000
   142  H          0.93110000       0.66100000       0.69160000
   143  H          0.13130000       0.29970000       0.23570000
   144  H          0.86870000       0.70030000       0.76430000
   145  C          0.89712000       0.17840190       0.25462180
   146  C          0.10288000       0.82159810       0.74537820
   147  H          0.82230000       0.13410000       0.20780000
   148  H          0.17770000       0.86590000       0.79220000
   149  H          0.88000000       0.23600000       0.29270000
   150  H          0.12000000       0.76400000       0.70730000
   151  C          0.96152000       0.12139180       0.32367180
   152  C          0.03848000       0.87860820       0.67632820
   153  H          0.91200000       0.09590000       0.35750000
   154  H          0.08800000       0.90410000       0.64250000
   155  H          0.97900000       0.06380000       0.28600000
   156  H          0.02100000       0.93620000       0.71400000
   157  C          0.90412000       0.26862000       0.13335180
   158  C          0.09588000       0.73138000       0.86664820
   159  H          0.89740000       0.33080000       0.17310000
   160  H          0.10260000       0.66920000       0.82690000
   161  H          0.82450000       0.22700000       0.09580000
   162  H          0.17550000       0.77300000       0.90420000
   163  C          0.95942000       0.29562000       0.06079180
   164  C          0.04058000       0.70438000       0.93920820
   165  H          0.97700000       0.23580000       0.02670000
   166  H          0.02300000       0.76420000       0.97330000
   167  H          0.03320000       0.34680000       0.09650000
   168  H          0.96680000       0.65320000       0.90350000
   169  C          0.87432000       0.33622000       0.98546820
   170  C          0.12568000       0.66378000       0.01453180
   171  H          0.79980000       0.28560000       0.95270000
   172  H          0.20020000       0.71440000       0.04730000
   173  H          0.85870000       0.39660000       0.02050000
   174  H          0.14130000       0.60340000       0.97950000
   175  C          0.91902000       0.36232000       0.90791820
   176  C          0.08098000       0.63768000       0.09208180
   177  H         -0.00640000       0.41290000       0.93880000
   178  H          0.00640000       0.58710000       0.06120000
   179  H          0.93120000       0.30210000       0.86930000
   180  H          0.06880000       0.69790000       0.13070000
   181  C          0.84084190       0.41727180       0.76021830
   182  C          0.15915810       0.58272820       0.23978170
   183  C          0.93872000       0.40992000       0.73458810
   184  C          0.06128000       0.59008000       0.26541190
   185  H          0.00480000       0.39570000       0.77790000
   186  H         -0.00480000       0.60430000       0.22210000
   187  C          0.93742000       0.42382000       0.64417810
   188  C          0.06258000       0.57618000       0.35582190
   189  H          0.00350000       0.41840000       0.62740000
   190  H         -0.00350000       0.58160000       0.37260000
   191  C          0.84159190       0.44532180       0.57771830
   192  C          0.15840810       0.55467820       0.42228170
   193  C          0.74611180       0.45701160       0.60738850
   194  C          0.25388820       0.54298840       0.39261150
   195  C          0.74507190       0.44243170       0.69696840
   196  C          0.25492810       0.55756830       0.30303160
   197  H          0.68000000       0.44950000       0.71490000
   198  H          0.32000000       0.55050000       0.28510000
   199  C          0.82842000       0.45162000       0.47417810
   200  C          0.17158000       0.54838000       0.52582190
   201  H          0.78400000       0.38660000       0.42720000
   202  H          0.21600000       0.61340000       0.57280000
   203  H          0.90620000       0.46670000       0.46980000
   204  H          0.09380000       0.53330000       0.53020000
   205  C          0.76502000       0.53332000       0.44764810
   206  C          0.23498000       0.46668000       0.55235190
   207  H          0.81710000       0.59950000       0.48550000
   208  H          0.18290000       0.40050000       0.51450000
   209  H          0.74680000       0.52910000       0.37760000
   210  H          0.25320000       0.47090000       0.62240000
   211  C          0.65182000       0.52409180       0.46825840
   212  C          0.34818000       0.47590820       0.53174160
   213  Cl         0.06158700       0.15258600       0.73352500
   214  Cl         0.93841300       0.84741400       0.26647500
   215  Cl         0.93312700       0.19071700       0.53007600
   216  Cl         0.06687300       0.80928300       0.46992400
   217  N          0.07163160       0.18992140       0.39643130
   218  N          0.92836840       0.81007860       0.60356870
   219  N          0.96860160       0.21431140       0.20033130
   220  N          0.03139840       0.78568860       0.79966870
   221  N          0.64901170       0.48355150       0.54341870
   222  N          0.35098830       0.51644850       0.45658130
   223  H          0.58020000       0.47431800       0.55478200
   224  H          0.41980000       0.52568200       0.44521800
   225  O          0.83034150       0.40137150       0.84570870
   226  O          0.16965850       0.59862850       0.15429130
   227  O          0.56689150       0.55318140       0.42030880
   228  O          0.43310850       0.44681860       0.57969120
