data_MELFIT07
_symmetry_space_group_name_H-M    'P1'
_symmetry_Int_Tables_number       1
loop_
_symmetry_equiv_pos_site_id
_symmetry_equiv_pos_as_xyz
1 x,y,z
_cell_length_a                   7.026615
_cell_length_b                   9.9772
_cell_length_c                   15.9453
_cell_angle_alpha                81.7734
_cell_angle_beta                 78.7284
_cell_angle_gamma                85.8884
loop_
_atom_site_label
_atom_site_type_symbol
_atom_site_fract_x
_atom_site_fract_y
_atom_site_fract_z
     1  Cl         0.25569500       0.79866400       0.42872200
     2  Cl         0.74430500       0.20133600       0.57127800
     3  Cl         0.11778400       0.95325400       0.58862200
     4  Cl         0.88221600       0.04674600       0.41137800
     5  O          0.40962150       0.59574100       0.07879700
     6  O          0.59037850       0.40425900       0.92120300
     7  O          0.03981160       0.11262110       0.89274300
     8  O          0.96018840       0.88737890       0.10725700
     9  N          0.64813820       0.65874120       0.41955800
    10  N          0.35186180       0.34125880       0.58044200
    11  N          0.83826820       0.53673120       0.27142800
    12  N          0.16173180       0.46326880       0.72857200
    13  N          0.82506190       0.94979130       0.94729200
    14  N          0.17493810       0.05020870       0.05270800
    15  H          0.87320000       0.93491700      -0.00621200
    16  H          0.12680000       0.06508300       0.00621200
    17  C          0.40908000       0.80385140       0.50120900
    18  C          0.59092000       0.19614860       0.49879100
    19  C          0.34568000       0.87097140       0.57306100
    20  C          0.65432000       0.12902860       0.42693900
    21  C          0.45858000       0.86794160       0.63559100
    22  C          0.54142000       0.13205840       0.36440900
    23  H          0.41450000       0.91390000       0.68450000
    24  H          0.58550000       0.08610000       0.31550000
    25  C          0.63608000       0.79718160       0.62569100
    26  C          0.36392000       0.20281840       0.37430900
    27  H          0.71370000       0.79380000       0.66860000
    28  H          0.28630000       0.20620000       0.33140000
    29  C          0.70248000       0.73110160       0.55407100
    30  C          0.29752000       0.26889840       0.44592900
    31  H          0.82600000       0.68420000       0.54820000
    32  H          0.17400000       0.31580000       0.45180000
    33  C          0.59118000       0.73215140       0.49030900
    34  C          0.40882000       0.26784860       0.50969100
    35  C          0.79188000       0.54664150       0.42754100
    36  C          0.20812000       0.45335850       0.57245900
    37  H          0.75940000       0.49200000       0.48490000
    38  H          0.24060000       0.50800000       0.51510000
    39  H          0.92230000       0.58240000       0.42170000
    40  H          0.07770000       0.41760000       0.57830000
    41  C          0.79208000       0.45883150       0.35723100
    42  C          0.20792000       0.54116850       0.64276900
    43  H          0.88900000       0.38250000       0.36230000
    44  H          0.11100000       0.61750000       0.63770000
    45  H          0.66270000       0.42050000       0.36490000
    46  H          0.33730000       0.57950000       0.63510000
    47  C          0.69698000       0.65165150       0.26439900
    48  C          0.30302000       0.34834850       0.73560100
    49  H          0.56560000       0.61760000       0.27010000
    50  H          0.43440000       0.38240000       0.72990000
    51  H          0.73030000       0.70610000       0.20700000
    52  H          0.26970000       0.29390000       0.79300000
    53  C          0.69758000       0.73967150       0.33408900
    54  C          0.30242000       0.26032850       0.66591100
    55  H          0.82770000       0.77660000       0.32720000
    56  H          0.17230000       0.22340000       0.67280000
    57  H          0.60190000       0.81680000       0.32900000
    58  H          0.39810000       0.18320000       0.67100000
    59  C          0.83868000       0.44991150       0.20438100
    60  C          0.16132000       0.55008850       0.79561900
    61  H          0.82930000       0.50780000       0.14930000
    62  H          0.17070000       0.49220000       0.85070000
    63  H          0.72300000       0.39400000       0.22070000
    64  H          0.27700000       0.60600000       0.77930000
    65  C          0.02182000       0.35648150       0.19101100
    66  C          0.97818000       0.64351850       0.80898900
    67  H          0.01990000       0.28920000       0.24320000
    68  H          0.98010000       0.71080000       0.75680000
    69  H          0.01930000       0.30630000       0.14200000
    70  H          0.98070000       0.69370000       0.85800000
    71  C          0.21112000       0.43143150       0.17310100
    72  C          0.78888000       0.56856850       0.82689900
    73  H          0.21920000       0.47640000       0.22370000
    74  H          0.78080000       0.52360000       0.77630000
    75  H          0.32280000       0.36520000       0.16450000
    76  H          0.67720000       0.63480000       0.83550000
    77  C          0.22332000       0.53691150       0.09378100
    78  C          0.77668000       0.46308850       0.90621900
    79  H          0.20890000       0.49400000       0.04320000
    80  H          0.79110000       0.50600000       0.95680000
    81  H          0.11830000       0.60780000       0.10330000
    82  H          0.88170000       0.39220000       0.89670000
    83  C          0.44522000       0.70050140       0.01283900
    84  C          0.55478000       0.29949860       0.98716100
    85  C          0.61402000       0.76758140       0.00853900
    86  C          0.38598000       0.23241860      -0.00853900
    87  H          0.69730000       0.73810000       0.04850000
    88  H          0.30270000       0.26190000       0.95150000
    89  C          0.66072000       0.87787150       0.94577100
    90  C          0.33928000       0.12212850       0.05422900
    91  C          0.54502000       0.92107150       0.88392100
    92  C          0.45498000       0.07892850       0.11607900
    93  C          0.37892000       0.85079150       0.88898100
    94  C          0.62108000       0.14920850       0.11101900
    95  H          0.29810000       0.87800000       0.84770000
    96  H          0.70190000       0.12200000       0.15230000
    97  C          0.32622000       0.74157150       0.95260900
    98  C          0.67378000       0.25842850       0.04739100
    99  H          0.21090000       0.69590000       0.95480000
   100  H          0.78910000       0.30410000       0.04520000
   101  C          0.59942000       0.04625150       0.82100900
   102  C          0.40058000       0.95374850       0.17899100
   103  H          0.52900000       0.12650000       0.84440000
   104  H          0.47100000       0.87350000       0.15560000
   105  H          0.55840000       0.03850000       0.76600000
   106  H          0.44160000       0.96150000       0.23400000
   107  C          0.81812000       0.06702160       0.80358900
   108  C          0.18188000       0.93297840       0.19641100
   109  H          0.88510000       0.00220000       0.76480000
   110  H          0.11490000      -0.00220000       0.23520000
   111  H          0.84290000       0.15980000       0.77350000
   112  H          0.15710000       0.84020000       0.22650000
   113  C          0.90282000       0.04771150       0.88473900
   114  C          0.09718000       0.95228850       0.11526100
