data_MELFIT02
_symmetry_space_group_name_H-M    'P1'
_symmetry_Int_Tables_number       1
loop_
_symmetry_equiv_pos_site_id
_symmetry_equiv_pos_as_xyz
1 x,y,z
_cell_length_a                   23.5195
_cell_length_b                   12.6573
_cell_length_c                   7.756016
_cell_angle_alpha                90.0
_cell_angle_beta                 90.0
_cell_angle_gamma                90.0
loop_
_atom_site_label
_atom_site_type_symbol
_atom_site_fract_x
_atom_site_fract_y
_atom_site_fract_z
     1  Cl         0.96920880       0.27660180       0.91957000
     2  Cl         0.03079120       0.72339820       0.41957000
     3  Cl         0.46920880       0.22339820       0.91957000
     4  Cl         0.53079120       0.77660180       0.41957000
     5  Cl         0.84679850       0.19272000       0.84276000
     6  Cl         0.15320150       0.80728000       0.34276000
     7  Cl         0.34679850       0.30728000       0.84276000
     8  Cl         0.65320150       0.69272000       0.34276000
     9  N          0.08644000       0.43085000       0.42801100
    10  N          0.91356000       0.56915000       0.92801100
    11  N          0.58644000       0.06915000       0.42801100
    12  N          0.41356000       0.93085000       0.92801100
    13  C          0.08185000       0.31987000       0.46851200
    14  C          0.91815000       0.68013000       0.96851200
    15  C          0.58185000       0.18013000       0.46851200
    16  C          0.41815000       0.81987000       0.96851200
    17  H          0.09750000       0.30650000       0.58210000
    18  H          0.90250000       0.69350000       0.08210000
    19  H          0.59750000       0.19350000       0.58210000
    20  H          0.40250000       0.80650000       0.08210000
    21  H          0.10330000       0.27880000       0.38540000
    22  H          0.89670000       0.72120000       0.88540000
    23  H          0.60330000       0.22120000       0.38540000
    24  H          0.39670000       0.77880000       0.88540000
    25  C          0.01965000       0.28607000       0.46421000
    26  C          0.98035000       0.71393000       0.96421000
    27  C          0.51965000       0.21393000       0.46421000
    28  C          0.48035000       0.78607000       0.96421000
    29  H          0.01670000       0.21090000       0.48780000
    30  H          0.98330000       0.78910000      -0.01220000
    31  H          0.51670000       0.28910000       0.48780000
    32  H          0.48330000       0.71090000      -0.01220000
    33  H         -0.00150000       0.32370000       0.55220000
    34  H          0.00150000       0.67630000       0.05220000
    35  H          0.49850000       0.17630000       0.55220000
    36  H          0.50150000       0.82370000       0.05220000
    37  N         -0.00444000       0.30916000       0.29408000
    38  N          0.00444000       0.69084000       0.79408000
    39  N          0.49556000       0.19084000       0.29408000
    40  N          0.50444000       0.80916000       0.79408000
    41  C          0.00225000       0.42016000       0.25191100
    42  C         -0.00225000       0.57984000       0.75191100
    43  C          0.50225000       0.07984000       0.25191100
    44  C          0.49775000       0.92016000       0.75191100
    45  H          0.98090000       0.46250000       0.33350000
    46  H          0.01910000       0.53750000       0.83350000
    47  H          0.48090000       0.03750000       0.33350000
    48  H          0.51910000       0.96250000       0.83350000
    49  H          0.98710000       0.43330000       0.13760000
    50  H          0.01290000       0.56670000       0.63760000
    51  H          0.48710000       0.06670000       0.13760000
    52  H          0.51290000       0.93330000       0.63760000
    53  C          0.06395000       0.45187000       0.25731200
    54  C          0.93605000       0.54813000       0.75731200
    55  C          0.56395000       0.04813000       0.25731200
    56  C          0.43605000       0.95187000       0.75731200
    57  H          0.08520000       0.41210000       0.17200000
    58  H          0.91480000       0.58790000       0.67200000
    59  H          0.58520000       0.08790000       0.17200000
    60  H          0.41480000       0.91210000       0.67200000
    61  H          0.06760000       0.52640000       0.23080000
    62  H          0.93240000       0.47360000       0.73080000
    63  H          0.56760000       0.97360000       0.23080000
    64  H          0.43240000       0.02640000       0.73080000
    65  C          0.94155000       0.26497000       0.25681300
    66  C          0.05845000       0.73503000       0.75681300
    67  C          0.44155000       0.23503000       0.25681300
    68  C          0.55845000       0.76497000       0.75681300
    69  C          0.92165000       0.24976000       0.08391100
    70  C          0.07835000       0.75024000       0.58391100
    71  C          0.42165000       0.25024000       0.08391100
    72  C          0.57835000       0.74976000       0.58391100
    73  C          0.87005000       0.21047000       0.05601700
    74  C          0.12995000       0.78953000       0.55601700
    75  C          0.37005000       0.28953000       0.05601700
    76  C          0.62995000       0.71047000       0.55601700
    77  C          0.83265000       0.17738000       0.18591600
    78  C          0.16735000       0.82262000       0.68591600
    79  C          0.33265000       0.32262000       0.18591600
    80  C          0.66735000       0.67738000       0.68591600
    81  H          0.79720000       0.14850000       0.16240000
    82  H          0.20280000       0.85150000       0.66240000
    83  H          0.29720000       0.35150000       0.16240000
    84  H          0.70280000       0.64850000       0.66240000
    85  C          0.85324000       0.19118000       0.35511700
    86  C          0.14676000       0.80882000       0.85511700
    87  C          0.35324000       0.30882000       0.35511700
    88  C          0.64676000       0.69118000       0.85511700
    89  H          0.83040000       0.17080000       0.44690000
    90  H          0.16960000       0.82920000       0.94690000
    91  H          0.33040000       0.32920000       0.44690000
    92  H          0.66960000       0.67080000       0.94690000
    93  C          0.90565000       0.23338000       0.38991400
    94  C          0.09435000       0.76662000       0.88991400
    95  C          0.40565000       0.26662000       0.38991400
    96  C          0.59435000       0.73338000       0.88991400
    97  H          0.91740000       0.24100000       0.50380000
    98  H          0.08260000       0.75900000       0.00380000
    99  H          0.41740000       0.25900000       0.50380000
   100  H          0.58260000       0.74100000       0.00380000
   101  C          0.14415000       0.46477000       0.44381300
   102  C          0.85585000       0.53523000       0.94381300
   103  C          0.64415000       0.03523000       0.44381300
   104  C          0.35585000       0.96477000       0.94381300
   105  H          0.14900000       0.53060000       0.38160000
   106  H          0.85100000       0.46940000       0.88160000
   107  H          0.64900000       0.96940000       0.38160000
   108  H          0.35100000       0.03060000       0.88160000
   109  H          0.16880000       0.41250000       0.39120000
   110  H          0.83120000       0.58750000       0.89120000
   111  H          0.66880000       0.08750000       0.39120000
   112  H          0.33120000       0.91250000       0.89120000
   113  C          0.16225000       0.48118000       0.63551400
   114  C          0.83775000       0.51882000       0.13551400
   115  C          0.66225000       0.01882000       0.63551400
   116  C          0.33775000       0.98118000       0.13551400
   117  H          0.13630000       0.53110000       0.68860000
   118  H          0.86370000       0.46890000       0.18860000
   119  H          0.63630000       0.96890000       0.68860000
   120  H          0.36370000       0.03110000       0.18860000
   121  H          0.15830000       0.41440000       0.69600000
   122  H          0.84170000       0.58560000       0.19600000
   123  H          0.65830000       0.08560000       0.69600000
   124  H          0.34170000       0.91440000       0.19600000
   125  C          0.21966000       0.51891000       0.65791500
   126  C          0.78034000       0.48109000       0.15791500
   127  C          0.71966000       0.98109000       0.65791500
   128  C          0.28034000       0.01891000       0.15791500
   129  H          0.22510000       0.58140000       0.58730000
   130  H          0.77490000       0.41860000       0.08730000
   131  H          0.72510000       0.91860000       0.58730000
   132  H          0.27490000       0.08140000       0.08730000
   133  H          0.24600000       0.46530000       0.61810000
   134  H          0.75400000       0.53470000       0.11810000
   135  H          0.74600000       0.03470000       0.61810000
   136  H          0.25400000       0.96530000       0.11810000
   137  C          0.23305000       0.54599000       0.84471500
   138  C          0.76695000       0.45401000       0.34471500
   139  C          0.73305000       0.95401000       0.84471500
   140  C          0.26695000       0.04599000       0.34471500
   141  H          0.20730000       0.60070000       0.88400000
   142  H          0.79270000       0.39930000       0.38400000
   143  H          0.70730000       0.89930000       0.88400000
   144  H          0.29270000       0.10070000       0.38400000
   145  H          0.22700000       0.48380000       0.91580000
   146  H          0.77300000       0.51620000       0.41580000
   147  H          0.72700000       0.01620000       0.91580000
   148  H          0.27300000       0.98380000       0.41580000
   149  O          0.28873000       0.58036000       0.86428000
   150  O          0.71127000       0.41964000       0.36428000
   151  O          0.78873000       0.91964000       0.86428000
   152  O          0.21127000       0.08036000       0.36428000
   153  C          0.30745000       0.60169000       0.03211300
   154  C          0.69255000       0.39831000       0.53211300
   155  C          0.80745000       0.89831000       0.03211300
   156  C          0.19255000       0.10169000       0.53211300
   157  C          0.36134000       0.57017000       0.06461100
   158  C          0.63866000       0.42983000       0.56461100
   159  C          0.86134000       0.92983000       0.06461100
   160  C          0.13866000       0.07017000       0.56461100
   161  H          0.38300000       0.53690000       0.98020000
   162  H          0.61700000       0.46310000       0.48020000
   163  H          0.88300000       0.96310000       0.98020000
   164  H          0.11700000       0.03690000       0.48020000
   165  C          0.38354000       0.58926000       0.23041000
   166  C          0.61646000       0.41074000       0.73041000
   167  C          0.88354000       0.91074000       0.23041000
   168  C          0.11646000       0.08926000       0.73041000
   169  C          0.35225000       0.64487000       0.35321200
   170  C          0.64775000       0.35513000       0.85321200
   171  C          0.85225000       0.85513000       0.35321200
   172  C          0.14775000       0.14487000       0.85321200
   173  C          0.29905000       0.67579000       0.30881400
   174  C          0.70095000       0.32421000       0.80881400
   175  C          0.79905000       0.82421000       0.30881400
   176  C          0.20095000       0.17579000       0.80881400
   177  H          0.27740000       0.71180000       0.39020000
   178  H          0.72260000       0.28820000       0.89020000
   179  H          0.77740000       0.78820000       0.39020000
   180  H          0.22260000       0.21180000       0.89020000
   181  C          0.27455000       0.65598000       0.14421400
   182  C          0.72545000       0.34402000       0.64421400
   183  C          0.77455000       0.84402000       0.14421400
   184  C          0.22545000       0.15598000       0.64421400
   185  H          0.23810000       0.67890000       0.11560000
   186  H          0.76190000       0.32110000       0.61560000
   187  H          0.73810000       0.82110000       0.11560000
   188  H          0.26190000       0.17890000       0.61560000
   189  N          0.43823000       0.55265000       0.27368000
   190  N          0.56177000       0.44735000       0.77368000
   191  N          0.93823000       0.94735000       0.27368000
   192  N          0.06177000       0.05265000       0.77368000
   193  H          0.46100000       0.53830000       0.19020000
   194  H          0.53900000       0.46170000       0.69020000
   195  H          0.96100000       0.96170000       0.19020000
   196  H          0.03900000       0.03830000       0.69020000
   197  C          0.45774000       0.53816000       0.43661300
   198  C          0.54226000       0.46184000       0.93661300
   199  C          0.95774000       0.96184000       0.43661300
   200  C          0.04226000       0.03816000       0.93661300
   201  C          0.41814000       0.57538000       0.57861200
   202  C          0.58186000       0.42462000       0.07861200
   203  C          0.91814000       0.92462000       0.57861200
   204  C          0.08186000       0.07538000       0.07861200
   205  H          0.39470000       0.51630000       0.61500000
   206  H          0.60530000       0.48370000       0.11500000
   207  H          0.89470000       0.98370000       0.61500000
   208  H          0.10530000       0.01630000       0.11500000
   209  H          0.44080000       0.59710000       0.67670000
   210  H          0.55920000       0.40290000       0.17670000
   211  H          0.94080000       0.90290000       0.67670000
   212  H          0.05920000       0.09710000       0.17670000
   213  C          0.38014000       0.66519000       0.52681100
   214  C          0.61986000       0.33481000       0.02681100
   215  C          0.88014000       0.83481000       0.52681100
   216  C          0.11986000       0.16519000       0.02681100
   217  H          0.40230000       0.72960000       0.52080000
   218  H          0.59770000       0.27040000       0.02080000
   219  H          0.90230000       0.77040000       0.52080000
   220  H          0.09770000       0.22960000       0.02080000
   221  H          0.35090000       0.67470000       0.61370000
   222  H          0.64910000       0.32530000       0.11370000
   223  H          0.85090000       0.82530000       0.61370000
   224  H          0.14910000       0.17470000       0.11370000
   225  O          0.50453000       0.49966000       0.46188000
   226  O          0.49547000       0.50034000       0.96188000
   227  O          0.00453000       0.00034000       0.46188000
   228  O         -0.00453000      -0.00034000       0.96188000
