data_MELFIT05
_symmetry_space_group_name_H-M    'P1'
_symmetry_Int_Tables_number       1
loop_
_symmetry_equiv_pos_site_id
_symmetry_equiv_pos_as_xyz
1 x,y,z
_cell_length_a                   8.866918
_cell_length_b                   7.762316
_cell_length_c                   16.4853
_cell_angle_alpha                90.0
_cell_angle_beta                 93.253
_cell_angle_gamma                90.0
loop_
_atom_site_label
_atom_site_type_symbol
_atom_site_fract_x
_atom_site_fract_y
_atom_site_fract_z
     1  Cl         0.33884100       0.37814120       0.14297500
     2  Cl         0.66115900       0.87814120       0.85702500
     3  Cl         0.54018110       0.48345120       0.29636600
     4  Cl         0.45981890      -0.01654880       0.70363400
     5  N          0.24393000       0.84834000       0.95475150
     6  N          0.75607000       0.34834000       0.04524850
     7  C          0.17614000       0.79985000       0.02912000
     8  C          0.82386000       0.29985000       0.97088000
     9  H          0.14390000       0.68050000       0.02540000
    10  H          0.85610000       0.18050000       0.97460000
    11  H          0.08740000       0.87030000       0.03590000
    12  H          0.91260000       0.37030000       0.96410000
    13  C          0.28454000       0.82154000       0.10192000
    14  C          0.71546000       0.32154000       0.89808000
    15  H          0.23530000       0.79010000       0.15090000
    16  H          0.76470000       0.29010000       0.84910000
    17  H          0.37100000       0.74650000       0.09700000
    18  H          0.62900000       0.24650000       0.90300000
    19  N          0.33413000       0.00033000       0.10714140
    20  N          0.66587000       0.50033000       0.89285860
    21  C          0.40524000       0.04884000       0.03232190
    22  C          0.59476000       0.54884000       0.96767810
    23  H          0.49300000       0.97690000       0.02540000
    24  H          0.50700000       0.47690000       0.97460000
    25  H          0.43830000       0.16770000       0.03590000
    26  H          0.56170000       0.66770000       0.96410000
    27  C          0.29364000       0.02685000       0.96022000
    28  C          0.70636000       0.52685000       0.03978000
    29  H          0.20730000       0.10150000       0.96620000
    30  H          0.79270000       0.60150000       0.03380000
    31  H          0.34080000       0.05900000       0.91080000
    32  H          0.65920000       0.55900000       0.08920000
    33  C          0.41443000       0.04684000       0.17958190
    34  C          0.58557000       0.54684000       0.82041810
    35  C          0.43043000       0.22074000       0.20156190
    36  C          0.56957000       0.72074000       0.79843810
    37  C          0.51213000       0.26834000       0.27182000
    38  C          0.48787000       0.76834000       0.72818000
    39  C          0.57324000       0.14545000       0.32522000
    40  C          0.42676000       0.64545000       0.67478000
    41  H          0.62780000       0.17820000       0.37260000
    42  H          0.37220000       0.67820000       0.62740000
    43  C          0.55124000       0.97415000       0.30672000
    44  C          0.44876000       0.47415000       0.69328000
    45  H          0.58780000       0.88990000       0.34280000
    46  H          0.41220000       0.38990000       0.65720000
    47  C          0.47524000       0.92654000       0.23492000
    48  C          0.52476000       0.42654000       0.76508000
    49  H          0.46430000       0.80990000       0.22300000
    50  H          0.53570000       0.30990000       0.77700000
    51  C          0.14194000       0.81655000       0.88292000
    52  C          0.85806000       0.31655000       0.11708000
    53  H          0.17260000       0.88720000       0.83820000
    54  H          0.82740000       0.38720000       0.16180000
    55  H          0.04000000       0.84950000       0.89480000
    56  H          0.96000000       0.34950000       0.10520000
    57  C          0.14324000       0.62955000       0.85802000
    58  C          0.85676000       0.12955000       0.14198000
    59  H          0.12980000       0.55860000       0.90550000
    60  H          0.87020000       0.05860000       0.09450000
    61  H          0.24120000       0.60230000       0.83800000
    62  H          0.75880000       0.10230000       0.16200000
    63  C          0.02074000       0.58395000       0.79252000
    64  C          0.97926000       0.08395000       0.20748000
    65  H          0.92220000       0.58870000       0.81530000
    66  H          0.07780000       0.08870000       0.18470000
    67  H          0.02190000       0.66660000       0.74850000
    68  H          0.97810000       0.16660000       0.25150000
    69  C          0.04774000       0.40735000       0.76092000
    70  C          0.95226000       0.90735000       0.23908000
    71  H          0.14150000       0.40510000       0.73330000
    72  H          0.85850000       0.90510000       0.26670000
    73  H          0.05620000       0.32600000       0.80560000
    74  H          0.94380000       0.82600000       0.19440000
    75  O          0.92478000       0.35953000       0.70557130
    76  O          0.07522000       0.85953000       0.29442870
    77  C          0.93367000       0.20074000       0.66968180
    78  C          0.06633000       0.70074000       0.33031820
    79  C          0.80417000       0.15074000       0.62330180
    80  C          0.19583000       0.65074000       0.37669820
    81  H          0.72040000       0.22280000       0.61820000
    82  H          0.27960000       0.72280000       0.38180000
    83  C          0.80297000      -0.00814000       0.58514160
    84  C          0.19703000       0.49186000       0.41485840
    85  C          0.92667000       0.88125000       0.59130170
    86  C          0.07333000       0.38125000       0.40869830
    87  C          0.05213000       0.93646000       0.63782000
    88  C          0.94787000       0.43646000       0.36218000
    89  H          0.13640000       0.86520000       0.64280000
    90  H          0.86360000       0.36520000       0.35720000
    91  C          0.05674000       0.09275000       0.67682000
    92  C          0.94326000       0.59275000       0.32318000
    93  H          0.14260000       0.12540000       0.70800000
    94  H          0.85740000       0.62540000       0.29200000
    95  N          0.67327000       0.93927000       0.53842150
    96  N          0.32673000       0.43927000       0.46157850
    97  H          0.61080000       0.01750000       0.52100000
    98  H          0.38920000       0.51750000       0.47900000
    99  C          0.64076000       0.77336000       0.51910180
   100  C          0.35924000       0.27336000       0.48089820
   101  C          0.75596000       0.64296000       0.54592000
   102  C          0.24404000       0.14296000       0.45408000
   103  H          0.74760000       0.54450000       0.50970000
   104  H          0.25240000       0.04450000       0.49030000
   105  H          0.73540000       0.60360000       0.60000000
   106  H          0.26460000       0.10360000       0.40000000
   107  C          0.91686000       0.71295000       0.54702000
   108  C          0.08314000       0.21295000       0.45298000
   109  H         -0.01420000       0.63080000       0.57350000
   110  H          0.01420000       0.13080000       0.42650000
   111  H          0.94630000       0.72890000       0.49170000
   112  H          0.05370000       0.22890000       0.50830000
   113  O          0.52057000       0.73707000       0.48226130
   114  O          0.47943000       0.23707000       0.51773870
