data_MELFIT01
_symmetry_space_group_name_H-M    'P1'
_symmetry_Int_Tables_number       1
loop_
_symmetry_equiv_pos_site_id
_symmetry_equiv_pos_as_xyz
1 x,y,z
_cell_length_a                   8.678917
_cell_length_b                   7.568315
_cell_length_c                   17.3814
_cell_angle_alpha                90.0
_cell_angle_beta                 94.503
_cell_angle_gamma                90.0
loop_
_atom_site_label
_atom_site_type_symbol
_atom_site_fract_x
_atom_site_fract_y
_atom_site_fract_z
     1  Cl         0.30319150       0.28884130       0.12440700
     2  Cl         0.69680850       0.78884130       0.87559300
     3  O          0.45744000       0.65586000       0.47712000
     4  O          0.54256000       0.15586000       0.52288000
     5  N          0.23235000       0.78465000       0.92541190
     6  N          0.76765000       0.28465000       0.07458810
     7  Cl         0.41954160       0.35635180       0.29645800
     8  Cl         0.58045840       0.85635180       0.70354200
     9  C          0.11536000       0.75386000       0.97933000
    10  C          0.88464000       0.25386000       0.02067000
    11  H          0.06180000       0.64410000       0.96620000
    12  H          0.93820000       0.14410000       0.03380000
    13  H          0.04000000       0.84870000       0.97500000
    14  H          0.96000000       0.34870000       0.02500000
    15  C          0.18596000       0.74415000       0.06133000
    16  C          0.81404000       0.24415000       0.93867000
    17  H          0.10580000       0.72360000       0.09620000
    18  H          0.89420000       0.22360000       0.90380000
    19  H          0.25890000       0.64690000       0.06660000
    20  H          0.74110000       0.14690000       0.93340000
    21  C          0.38485000       0.94026000       0.02802000
    22  C          0.61515000       0.44026000       0.97198000
    23  H          0.45950000       0.84480000       0.03270000
    24  H          0.54050000       0.34480000       0.96730000
    25  H          0.43830000       0.05000000       0.04100000
    26  H          0.56170000       0.55000000       0.95900000
    27  C          0.31246000       0.94886000       0.94723000
    28  C          0.68754000       0.44886000       0.05277000
    29  H          0.23950000       0.04610000       0.94270000
    30  H          0.76050000       0.54610000       0.05730000
    31  H          0.39180000       0.97100000       0.91210000
    32  H          0.60820000       0.47100000       0.08790000
    33  N          0.26484000       0.91054000       0.08056180
    34  N          0.73516000       0.41054000       0.91943820
    35  C          0.30905000       0.94015000       0.15943000
    36  C          0.69095000       0.44015000       0.84057000
    37  C          0.33555000       0.11246000       0.18652000
    38  C          0.66445000       0.61246000       0.81348000
    39  C          0.37815000       0.14406000       0.26303000
    40  C          0.62185000       0.64406000       0.73697000
    41  C          0.39006000       0.00858000       0.31633000
    42  C          0.60994000       0.50858000       0.68367000
    43  H          0.41680000       0.03130000       0.36820000
    44  H          0.58320000       0.53130000       0.63180000
    45  C          0.36136000       0.83918000       0.29063000
    46  C          0.63864000       0.33918000       0.70937000
    47  H          0.36760000       0.74610000       0.32560000
    48  H          0.63240000       0.24610000       0.67440000
    49  C          0.32356000       0.80537000       0.21383000
    50  C          0.67644000       0.30537000       0.78617000
    51  H          0.30710000       0.68910000       0.19780000
    52  H          0.69290000       0.18910000       0.80220000
    53  C          0.16567000       0.78848000       0.84513000
    54  C          0.83433000       0.28848000       0.15487000
    55  H          0.24210000       0.83500000       0.81280000
    56  H          0.75790000       0.33500000       0.18720000
    57  H          0.07820000       0.86870000       0.84160000
    58  H          0.92180000       0.36870000       0.15840000
    59  C          0.11137000       0.60708000       0.81334000
    60  C          0.88863000       0.10708000       0.18666000
    61  H          0.03130000       0.56210000       0.84410000
    62  H          0.96870000       0.06210000       0.15590000
    63  H          0.06660000       0.62130000       0.76080000
    64  H          0.93340000       0.12130000       0.23920000
    65  C          0.23688000       0.47909000       0.81435000
    66  C          0.76312000       0.97909000       0.18565000
    67  H          0.27500000       0.45820000       0.86740000
    68  H          0.72500000       0.95820000       0.13260000
    69  H          0.32070000       0.53010000       0.78790000
    70  H          0.67930000       0.03010000       0.21210000
    71  C          0.19331200       0.30151000       0.77674000
    72  C          0.80668800       0.80151000       0.22326000
    73  H          0.28140000       0.22290000       0.78440000
    74  H          0.71860000       0.72290000       0.21560000
    75  H          0.10990000       0.25040000       0.80350000
    76  H          0.89010000       0.75040000       0.19650000
    77  O          0.15045000       0.30645000       0.70332000
    78  O          0.84955000       0.80645000       0.29668000
    79  C          0.12636000       0.14246000       0.66803000
    80  C          0.87364000       0.64246000       0.33197000
    81  C          0.23765000       0.08515000       0.62192000
    82  C          0.76235000       0.58515000       0.37808000
    83  H          0.32530000       0.15300000       0.61620000
    84  H          0.67470000       0.65300000       0.38380000
    85  C          0.21754000       0.92535000       0.58412000
    86  C          0.78246000       0.42535000       0.41588000
    87  C          0.08834000       0.82005000       0.59132000
    88  C          0.91166000       0.32005000       0.40868000
    89  C          0.97845000       0.88383000       0.63873000
    90  C          0.02155000       0.38383000       0.36127000
    91  H          0.89040000       0.81700000       0.64480000
    92  H          0.10960000       0.31700000       0.35520000
    93  N          0.33154000       0.86676000       0.53656180
    94  N          0.66846000       0.36676000       0.46343820
    95  H          0.39460000       0.94390000       0.52080000
    96  H          0.60540000       0.44390000       0.47920000
    97  C         -0.00366000       0.04177000       0.67653000
    98  C          0.00366000       0.54177000       0.32347000
    99  H          0.92120000       0.08110000       0.70770000
   100  H          0.07880000       0.58110000       0.29230000
   101  C          0.34805000       0.69835000       0.51422000
   102  C          0.65195000       0.19835000       0.48578000
   103  C          0.23245000       0.56915000       0.54103000
   104  C          0.76755000       0.06915000       0.45897000
   105  H          0.27040000       0.52310000       0.59100000
   106  H          0.72960000       0.02310000       0.40900000
   107  H          0.22320000       0.47080000       0.50520000
   108  H          0.77680000       0.97080000       0.49480000
   109  C          0.07465000       0.64864000       0.54743000
   110  C          0.92535000       0.14864000       0.45257000
   111  H          0.02520000       0.66960000       0.49620000
   112  H          0.97480000       0.16960000       0.50380000
   113  H          0.01080000       0.56690000       0.57390000
   114  H         -0.01080000       0.06690000       0.42610000
