data_MELFIT04
_symmetry_space_group_name_H-M    'P1'
_symmetry_Int_Tables_number       1
loop_
_symmetry_equiv_pos_site_id
_symmetry_equiv_pos_as_xyz
1 x,y,z
_cell_length_a                   8.51805
_cell_length_b                   9.03507
_cell_length_c                   30.4172
_cell_angle_alpha                88.0726
_cell_angle_beta                 86.5506
_cell_angle_gamma                73.8746
loop_
_atom_site_label
_atom_site_type_symbol
_atom_site_fract_x
_atom_site_fract_y
_atom_site_fract_z
     1  Cl         0.70243100       0.35148100       0.18494300
     2  Cl         0.29756900       0.64851900       0.81505700
     3  Cl         0.92078110       0.14926140       0.25555400
     4  Cl         0.07921890       0.85073860       0.74444600
     5  N          0.12143000       0.43253000       0.12207700
     6  N          0.87857000       0.56747000       0.87792300
     7  C          0.08623000       0.49314000       0.16650900
     8  C          0.91377000       0.50686000       0.83349100
     9  H          0.96940000       0.51740000       0.17360000
    10  H          0.03060000       0.48260000       0.82640000
    11  H          0.11880000       0.58750000       0.16780000
    12  H          0.88120000       0.41250000       0.83220000
    13  C          0.17563000       0.37844000       0.19981900
    14  C          0.82437000       0.62156000       0.80018100
    15  H          0.14970000       0.42110000       0.22900000
    16  H          0.85030000       0.57890000       0.77100000
    17  H          0.14000000       0.28540000       0.19940000
    18  H          0.86000000       0.71460000       0.80060000
    19  N          0.35303000       0.34033000       0.19007700
    20  N          0.64697000       0.65967000       0.80992300
    21  C          0.38874000       0.28044000       0.14514900
    22  C          0.61126000       0.71956000       0.85485100
    23  H          0.35660000       0.18580000       0.14350000
    24  H          0.64340000       0.81420000       0.85650000
    25  H          0.50540000       0.25690000       0.13790000
    26  H          0.49460000       0.74310000       0.86210000
    27  C          0.29793000       0.39664000       0.11239100
    28  C          0.70207000       0.60336000       0.88760900
    29  H          0.33240000       0.49000000       0.11340000
    30  H          0.66760000       0.51000000       0.88660000
    31  H          0.32410000       0.35580000       0.08290000
    32  H          0.67590000       0.64420000       0.91710000
    33  C          0.45233000       0.25073000       0.22226900
    34  C          0.54767000       0.74927000       0.77773100
    35  C          0.61863000       0.24543000       0.22276100
    36  C          0.38137000       0.75457000       0.77723900
    37  C          0.71594000       0.15734000       0.25476110
    38  C          0.28406000       0.84266000       0.74523890
    39  C          0.65164000       0.07814000       0.28693110
    40  C          0.34836000       0.92186000       0.71306890
    41  H          0.71730000       0.02090000       0.30830000
    42  H          0.28270000       0.97910000       0.69170000
    43  C          0.48964000       0.08444000       0.28707110
    44  C          0.51036000       0.91556000       0.71292890
    45  H          0.44490000       0.03060000       0.30870000
    46  H          0.55510000       0.96940000       0.69130000
    47  C          0.39114000       0.16954000       0.25548110
    48  C          0.60886000       0.83046000       0.74451890
    49  H          0.28090000       0.17250000       0.25650000
    50  H          0.71910000       0.82750000       0.74350000
    51  C          0.03393000       0.53884000       0.08904100
    52  C          0.96607000       0.46116000       0.91095900
    53  H          0.08120000       0.50330000       0.06020000
    54  H          0.91880000       0.49670000       0.93980000
    55  H          0.05160000       0.63890000       0.09310000
    56  H          0.94840000       0.36110000       0.90690000
    57  C          0.85126000       0.55884000       0.08957100
    58  C          0.14874000       0.44116000       0.91042900
    59  H          0.79840000       0.61420000       0.11570000
    60  H          0.20160000       0.38580000       0.88430000
    61  H          0.83010000       0.45860000       0.09050000
    62  H          0.16990000       0.54140000       0.90950000
    63  C          0.78167000       0.64794000       0.04855100
    64  C          0.21833000       0.35206000       0.95144900
    65  H          0.80000000       0.74920000       0.04890000
    66  H          0.20000000       0.25080000       0.95110000
    67  H          0.84220000       0.59530000       0.02290000
    68  H          0.15780000       0.40470000       0.97710000
    69  C          0.60166000       0.66804000       0.04350900
    70  C          0.39834000       0.33196000       0.95649100
    71  H          0.57940000       0.56880000       0.04170000
    72  H          0.42060000       0.43120000       0.95830000
    73  H          0.53680000       0.72340000       0.06820000
    74  H          0.46320000       0.27660000       0.93180000
    75  O          0.56598000       0.75463000       0.00337700
    76  O          0.43402000       0.24537000      -0.00337700
    77  C          0.41187000       0.78633000       0.98793100
    78  C          0.58813000       0.21367000       0.01206900
    79  C          0.38627000       0.87933000       0.95073100
    80  C          0.61373000       0.12067000       0.04926900
    81  H          0.46950000       0.91860000       0.93860000
    82  H          0.53050000       0.08140000       0.06140000
    83  C          0.23807000       0.91413000       0.93155100
    84  C          0.76193000       0.08587000       0.06844900
    85  C          0.10887000       0.86123000       0.94978900
    86  C          0.89113000       0.13877000       0.05021100
    87  C          0.13856000       0.76964000       0.98716890
    88  C          0.86144000       0.23036000       0.01283110
    89  H          0.05470000       0.73260000      -0.00000000
    90  H          0.94530000       0.26740000       0.00000000
    91  C          0.28866000       0.73004000       0.00660100
    92  C          0.71134000       0.26996000       0.99339900
    93  H          0.30540000       0.66680000       0.03160000
    94  H          0.69460000       0.33320000       0.96840000
    95  N          0.21447000       0.00593000       0.89280200
    96  N          0.78553000      -0.00593000       0.10719800
    97  H          0.28770000       0.05220000       0.88510000
    98  H          0.71230000       0.94780000       0.11490000
    99  C          0.08666000       0.02734000       0.86679890
   100  C          0.91334000       0.97266000       0.13320110
   101  C          0.96156000       0.94475000       0.88109870
   102  C          0.03844000       0.05525000       0.11890130
   103  H          0.85590000       0.00610000       0.87180000
   104  H          0.14410000      -0.00610000       0.12820000
   105  H          0.98810000       0.84790000       0.86570000
   106  H          0.01190000       0.15210000       0.13430000
   107  C          0.94596000       0.91144000       0.92889880
   108  C          0.05404000       0.08856000       0.07110120
   109  H          0.89110000       0.83090000       0.93340000
   110  H          0.10890000       0.16910000       0.06660000
   111  H          0.87830000       0.00300000       0.94340000
   112  H          0.12170000      -0.00300000       0.05660000
   113  O          0.08007000       0.10313000       0.83245200
   114  O          0.91993000       0.89687000       0.16754800
   115  Cl         0.00146120       0.31393120       0.52074300
   116  Cl        -0.00146120       0.68606880       0.47925700
   117  Cl         0.20394120       0.20480140       0.60436400
   118  Cl         0.79605880       0.79519860       0.39563600
   119  N          0.51233000       0.23173000       0.44286900
   120  N          0.48767000       0.76827000       0.55713100
   121  C          0.43934000       0.31404000       0.48251110
   122  C          0.56066000       0.68596000       0.51748890
   123  H          0.32340000       0.32090000       0.48480000
   124  H          0.67660000       0.67910000       0.51520000
   125  H          0.45030000       0.41800000       0.48030000
   126  H          0.54970000       0.58200000       0.51970000
   127  C          0.51734000       0.23665000       0.52360110
   128  C          0.48266000       0.76335000       0.47639890
   129  H          0.46680000       0.29650000       0.54910000
   130  H          0.53320000       0.70350000       0.45090000
   131  H          0.50030000       0.13500000       0.52720000
   132  H          0.49970000       0.86500000       0.47280000
   133  N          0.69253000       0.22313000       0.52042800
   134  N          0.30747000       0.77687000       0.47957200
   135  C          0.76584000       0.13424000       0.48149120
   136  C          0.23416000       0.86576000       0.51850880
   137  H          0.74950000       0.03210000       0.48410000
   138  H          0.25050000       0.96790000       0.51590000
   139  H          0.88260000       0.12290000       0.47920000
   140  H          0.11740000       0.87710000       0.52080000
   141  C          0.68834000       0.21525000       0.44081110
   142  C          0.31166000       0.78475000       0.55918890
   143  H          0.70690000       0.31630000       0.43800000
   144  H          0.29310000       0.68370000       0.56200000
   145  H          0.73910000       0.15690000       0.41500000
   146  H          0.26090000       0.84310000       0.58500000
   147  C          0.77764000       0.18394000       0.55914100
   148  C          0.22236000       0.81606000       0.44085900
   149  C          0.92824000       0.21564000       0.56270100
   150  C          0.07176000       0.78436000       0.43729900
   151  C          0.01464000       0.17384000       0.60046110
   152  C          0.98536000       0.82616000       0.39953890
   153  C          0.95125000       0.11255000       0.63608130
   154  C          0.04875000       0.88745000       0.36391870
   155  H          0.00880000       0.08760000       0.66160000
   156  H         -0.00880000       0.91240000       0.33840000
   157  C          0.80216000       0.08807000       0.63387150
   158  C          0.19784000       0.91193000       0.36612850
   159  H          0.75650000       0.04860000       0.65850000
   160  H          0.24350000       0.95140000       0.34150000
   161  C          0.71615000       0.11995000       0.59620130
   162  C          0.28385000       0.88005000       0.40379870
   163  H          0.61570000       0.09840000       0.59550000
   164  H          0.38430000       0.90160000       0.40450000
   165  C          0.44174000       0.31625000       0.40385110
   166  C          0.55826000       0.68375000       0.59614890
   167  H          0.50460000       0.26740000       0.37800000
   168  H          0.49540000       0.73260000       0.62200000
   169  H          0.45270000       0.42010000       0.40470000
   170  H          0.54730000       0.57990000       0.59530000
   171  C          0.26414000       0.32584000       0.39879120
   172  C          0.73586000       0.67416000       0.60120880
   173  H          0.19920000       0.37530000       0.42430000
   174  H          0.80080000       0.62470000       0.57570000
   175  H          0.25130000       0.22280000       0.39720000
   176  H          0.74870000       0.77720000       0.60280000
   177  C          0.20344000       0.41674000       0.35750110
   178  C          0.79656000       0.58326000       0.64249890
   179  H          0.21510000       0.51990000       0.35980000
   180  H          0.78490000       0.48010000       0.64020000
   181  H          0.27250000       0.36870000       0.33250000
   182  H          0.72750000       0.63130000       0.66750000
   183  C          0.02864000       0.42864000       0.34886120
   184  C          0.97136000       0.57136000       0.65113880
   185  H          0.01580000       0.32780000       0.34310000
   186  H          0.98420000       0.67220000       0.65690000
   187  H          0.95700000       0.47130000       0.37400000
   188  H          0.04300000       0.52870000       0.62600000
   189  O         -0.00923000       0.52793000       0.31122700
   190  O          0.00923000       0.47207000       0.68877300
   191  C          0.83406000       0.56954000       0.29731100
   192  C          0.16594000       0.43046000       0.70268900
   193  C          0.81096000       0.66204000       0.26012900
   194  C          0.18904000       0.33796000       0.73987100
   195  H          0.89800000       0.69320000       0.24680000
   196  H          0.10200000       0.30680000       0.75320000
   197  C          0.65956000       0.70853000       0.24262100
   198  C          0.34044000       0.29147000       0.75737900
   199  C          0.52556000       0.66774000       0.26256110
   200  C          0.47444000       0.33226000       0.73743890
   201  C          0.55295000       0.57565000       0.29998120
   202  C          0.44705000       0.42435000       0.70001880
   203  H          0.46570000       0.54670000       0.31400000
   204  H          0.53430000       0.45330000       0.68600000
   205  C          0.70555000       0.52465000       0.31745120
   206  C          0.29445000       0.47535000       0.68254880
   207  H          0.72080000       0.46090000       0.34240000
   208  H          0.27920000       0.53910000       0.65760000
   209  N          0.63847000       0.79763000       0.20348800
   210  N          0.36153000       0.20237000       0.79651200
   211  H          0.71280000       0.84210000       0.19540000
   212  H          0.28720000       0.15790000       0.80460000
   213  C          0.51046000       0.81863000       0.17768110
   214  C          0.48954000       0.18137000       0.82231890
   215  C          0.37946000       0.74644000       0.19408130
   216  C          0.62054000       0.25356000       0.80591870
   217  H          0.27580000       0.80860000       0.18370000
   218  H          0.72420000       0.19140000       0.81630000
   219  H          0.40180000       0.64550000       0.18120000
   220  H          0.59820000       0.35450000       0.81880000
   221  C          0.36236000       0.72875000       0.24254130
   222  C          0.63764000       0.27125000       0.75745870
   223  H          0.29610000       0.65870000       0.24970000
   224  H          0.70390000       0.34130000       0.75030000
   225  H          0.30610000       0.82780000       0.25510000
   226  H          0.69390000       0.17220000       0.74490000
   227  O          0.50677000       0.88813000       0.14202800
   228  O          0.49323000       0.11187000       0.85797200
