data_MELFIT
_symmetry_space_group_name_H-M    'P1'
_symmetry_Int_Tables_number       1
loop_
_symmetry_equiv_pos_site_id
_symmetry_equiv_pos_as_xyz
1 x,y,z
_cell_length_a                   10.14993
_cell_length_b                   12.08004
_cell_length_c                   18.60287
_cell_angle_alpha                82.759219
_cell_angle_beta                 81.447117
_cell_angle_gamma                83.246019
loop_
_atom_site_label
_atom_site_type_symbol
_atom_site_fract_x
_atom_site_fract_y
_atom_site_fract_z
     1  Cl         0.31535500       0.84100500       0.09942300
     2  Cl         0.68464500       0.15899500       0.90057700
     3  Cl         0.58052500       0.83506500       0.16619300
     4  Cl         0.41947500       0.16493500       0.83380700
     5  O          0.47056150       0.43179130       0.40880900
     6  O          0.52943850       0.56820870       0.59119100
     7  O          0.09724150       0.37550130       0.53162900
     8  O          0.90275850       0.62449870       0.46837100
     9  N          0.71766830       0.60299150       0.20176100
    10  N          0.28233170       0.39700850       0.79823900
    11  N          0.98527830       0.55532160       0.23897100
    12  N          0.01472170       0.44467840       0.76102900
    13  N          0.90439170       0.38722160       0.48294100
    14  N          0.09560830       0.61277840       0.51705900
    15  H          0.90370000       0.45800000       0.47740000
    16  H          0.09630000       0.54200000       0.52260000
    17  C          0.40818000       0.71332000       0.12047120
    18  C          0.59182000       0.28668000       0.87952880
    19  C          0.52748000       0.71022190       0.14964120
    20  C          0.47252000       0.28977810       0.85035880
    21  C          0.59948000       0.60649190       0.16922120
    22  C          0.40052000       0.39350810       0.83077880
    23  C          0.54648000       0.50912000       0.15802130
    24  C          0.45352000       0.49088000       0.84197870
    25  H          0.59270000       0.43800000       0.17100000
    26  H          0.40730000       0.56200000       0.82900000
    27  C          0.42758000       0.51402000       0.12830140
    28  C          0.57242000       0.48598000       0.87169860
    29  H          0.39430000       0.44650000       0.12100000
    30  H          0.60570000       0.55350000       0.87900000
    31  C          0.35778000       0.61562000       0.10934130
    32  C          0.64222000       0.38438000       0.89065870
    33  H          0.27670000       0.61890000       0.08900000
    34  H          0.72330000       0.38110000       0.91100000
    35  C          0.75958000       0.49730190       0.24388130
    36  C          0.24042000       0.50269810       0.75611870
    37  H          0.79310000       0.43980000       0.21030000
    38  H          0.20690000       0.56020000       0.78970000
    39  H          0.68200000       0.47030000       0.27750000
    40  H          0.31800000       0.52970000       0.72250000
    41  C          0.86878000       0.51432000       0.28744130
    42  C          0.13122000       0.48568000       0.71255870
    43  H          0.83360000       0.56910000       0.32270000
    44  H          0.16640000       0.43090000       0.67730000
    45  H          0.89680000       0.44230000       0.31550000
    46  H          0.10320000       0.55770000       0.68450000
    47  C          0.94198000       0.66032000       0.19643130
    48  C          0.05802000       0.33968000       0.80356870
    49  H          0.01960000       0.68810000       0.16320000
    50  H          0.98040000       0.31190000       0.83680000
    51  H          0.90710000       0.71770000       0.23000000
    52  H          0.09290000       0.28230000       0.77000000
    53  C          0.83408000       0.64302000       0.15204130
    54  C          0.16592000       0.35698000       0.84795870
    55  H          0.80650000       0.71440000       0.12340000
    56  H          0.19350000       0.28560000       0.87660000
    57  H          0.86930000       0.58710000       0.11750000
    58  H          0.13070000       0.41290000       0.88250000
    59  C          0.09192000       0.57262000       0.28048130
    60  C          0.90808000       0.42738000       0.71951870
    61  H          0.05270000       0.61940000       0.31990000
    62  H          0.94730000       0.38060000       0.68010000
    63  H          0.15890000       0.61490000       0.24750000
    64  H          0.84110000       0.38510000       0.75250000
    65  C          0.16342000       0.46492000       0.31462130
    66  C          0.83658000       0.53508000       0.68537870
    67  H          0.19380000       0.41320000       0.27680000
    68  H          0.80620000       0.58680000       0.72320000
    69  H          0.10060000       0.42730000       0.35330000
    70  H          0.89940000       0.57270000       0.64670000
    71  C          0.28372000       0.49192000       0.34738140
    72  C          0.71628000       0.50808000       0.65261860
    73  H          0.34280000       0.53340000       0.30870000
    74  H          0.65720000       0.46660000       0.69130000
    75  H          0.25150000       0.54180000       0.38600000
    76  H          0.74850000       0.45820000       0.61400000
    77  C          0.36452000       0.39052000       0.37961130
    78  C          0.63548000       0.60948000       0.62038870
    79  H          0.30800000       0.34760000       0.41880000
    80  H          0.69200000       0.65240000       0.58120000
    81  H          0.40190000       0.34080000       0.34150000
    82  H          0.59810000       0.65920000       0.65850000
    83  C          0.57862000       0.35794190       0.42479120
    84  C          0.42138000       0.64205810       0.57520880
    85  C          0.58902000       0.24424190       0.41928120
    86  C          0.41098000       0.75575810       0.58071880
    87  H          0.51770000       0.21130000       0.40510000
    88  H          0.48230000       0.78870000       0.59490000
    89  C          0.70622000       0.17838190       0.43484120
    90  C          0.29378000       0.82161810       0.56515880
    91  H          0.71350000       0.10010000       0.43130000
    92  H          0.28650000       0.89990000       0.56870000
    93  C          0.81152000       0.22394180       0.45520120
    94  C          0.18848000       0.77605820       0.54479880
    95  C          0.79712000       0.33851180       0.46234120
    96  C          0.20288000       0.66148820       0.53765880
    97  C          0.68162000       0.40573180       0.44752120
    98  C          0.31838000       0.59426820       0.55247880
    99  H          0.67290000       0.48360000       0.45280000
   100  H          0.32710000       0.51640000       0.54720000
   101  C          0.94312000       0.15737190       0.46866140
   102  C          0.05688000       0.84262810       0.53133860
   103  H          0.00640000       0.16090000       0.42270000
   104  H         -0.00640000       0.83910000       0.57730000
   105  H          0.92820000       0.07780000       0.48400000
   106  H          0.07180000       0.92220000       0.51600000
   107  C          0.00362000       0.20292190       0.52754130
   108  C         -0.00362000       0.79707810       0.47245870
   109  H          0.95040000       0.18380000       0.57570000
   110  H          0.04960000       0.81620000       0.42430000
   111  H          0.09580000       0.16650000       0.52930000
   112  H          0.90420000       0.83350000       0.47070000
   113  C          0.00722000       0.32766190       0.51405120
   114  C         -0.00722000       0.67233810       0.48594880
   115  Cl         0.84963400       0.35925600       0.04919400
   116  Cl         0.15036600       0.64074400       0.95080600
   117  Cl         0.09478400       0.37214500       0.12957300
   118  Cl         0.90521600       0.62785500       0.87042700
   119  O          0.08058150       0.04125140       0.30448900
   120  O          0.91941850       0.95874860       0.69551100
   121  O          0.65457150       0.90410870       0.47790900
   122  O          0.34542850       0.09589130       0.52209100
   123  N          0.32495830       0.19671160       0.09876100
   124  N          0.67504170       0.80328840       0.90123900
   125  N          0.54455820       0.13793170       0.18099110
   126  N          0.45544180       0.86206830       0.81900890
   127  N          0.46715170       0.93881850       0.42336100
   128  N          0.53284830       0.06118150       0.57663900
   129  H          0.43750000       0.98740000       0.45220000
   130  H          0.56250000       0.01260000       0.54780000
   131  C         -0.01022000       0.26322000       0.03714130
   132  C          0.01022000       0.73678000       0.96285870
   133  C          0.09948000       0.26802000       0.07284120
   134  C          0.90052000       0.73198000       0.92715880
   135  C          0.21388000       0.19099190       0.06185120
   136  C          0.78612000       0.80900810       0.93814880
   137  C          0.21418000       0.11292000       0.01224130
   138  C          0.78582000       0.88708000       0.98775870
   139  H          0.29140000       0.06150000       0.00260000
   140  H          0.70860000       0.93850000      -0.00260000
   141  C          0.10388000       0.10892000       0.97675870
   142  C          0.89612000       0.89108000       0.02324130
   143  H          0.10640000       0.05490000       0.94350000
   144  H          0.89360000       0.94510000       0.05650000
   145  C         -0.00942000       0.18302000       0.98944870
   146  C          0.00942000       0.81698000       0.01055130
   147  H          0.91450000       0.17920000       0.96600000
   148  H          0.08550000       0.82080000       0.03400000
   149  C          0.45388000       0.14592000       0.06565130
   150  C          0.54612000       0.85408000       0.93434870
   151  H          0.46890000       0.17280000       0.01280000
   152  H          0.53110000       0.82720000       0.98720000
   153  H          0.45400000       0.06330000       0.07090000
   154  H          0.54600000       0.93670000       0.92910000
   155  C          0.56448000       0.17732000       0.10306130
   156  C          0.43552000       0.82268000       0.89693870
   157  H          0.65200000       0.14360000       0.08040000
   158  H          0.34800000       0.85640000       0.91960000
   159  H          0.56560000       0.25980000       0.09650000
   160  H          0.43440000       0.74020000       0.90350000
   161  C          0.41428000       0.18612000       0.21446130
   162  C          0.58572000       0.81388000       0.78553870
   163  H          0.41290000       0.26870000       0.21050000
   164  H          0.58710000       0.73130000       0.78950000
   165  H          0.40000000       0.15770000       0.26700000
   166  H          0.60000000       0.84230000       0.73300000
   167  C          0.30318000       0.15592000       0.17738120
   168  C          0.69682000       0.84408000       0.82261880
   169  H          0.30120000       0.07350000       0.18360000
   170  H          0.69880000       0.92650000       0.81640000
   171  H          0.21600000       0.19020000       0.20010000
   172  H          0.78400000       0.80980000       0.79990000
   173  C          0.65138000       0.16362000       0.21884140
   174  C          0.34862000       0.83638000       0.78115860
   175  H          0.62050000       0.15630000       0.27210000
   176  H          0.37950000       0.84370000       0.72790000
   177  H          0.66900000       0.24260000       0.20360000
   178  H          0.33100000       0.75740000       0.79640000
   179  C          0.78088000       0.08912000       0.20445140
   180  C          0.21912000       0.91088000       0.79554860
   181  H          0.81770000       0.10180000       0.15210000
   182  H          0.18230000       0.89820000       0.84790000
   183  H          0.76290000       0.00950000       0.21560000
   184  H          0.23710000      -0.00950000       0.78440000
   185  C          0.88438000       0.11302000       0.25123140
   186  C          0.11562000       0.88698000       0.74876860
   187  H          0.92410000       0.18280000       0.22970000
   188  H          0.07590000       0.81720000       0.77030000
   189  H          0.83950000       0.12440000       0.30110000
   190  H          0.16050000       0.87560000       0.69890000
   191  C         -0.00652000       0.01772000       0.25550140
   192  C          0.00652000       0.98228000       0.74449860
   193  H          0.95420000       0.94650000       0.27370000
   194  H          0.04580000       0.05350000       0.72630000
   195  H          0.04440000       0.01010000       0.20640000
   196  H          0.95560000      -0.01010000       0.79360000
   197  C          0.18532000       0.96109810       0.31700120
   198  C          0.81468000       0.03890190       0.68299880
   199  C          0.20822000       0.85998000       0.28659120
   200  C          0.79178000       0.14002000       0.71340880
   201  H          0.14950000       0.84170000       0.25560000
   202  H          0.85050000       0.15830000       0.74440000
   203  C          0.31822000       0.78646810       0.30231120
   204  C          0.68178000       0.21353190       0.69768880
   205  H          0.33420000       0.71780000       0.28110000
   206  H          0.66580000       0.28220000       0.71890000
   207  C          0.40572000       0.80901820       0.34763120
   208  C          0.59428000       0.19098180       0.65236880
   209  C          0.38062000       0.91159820       0.37714120
   210  C          0.61938000       0.08840180       0.62285880
   211  C          0.27062000       0.98705810       0.36273120
   212  C          0.72938000       0.01294190       0.63726880
   213  H          0.25420000       0.05570000       0.38400000
   214  H          0.74580000       0.94430000       0.61600000
   215  C          0.52392000       0.72926810       0.36778130
   216  C          0.47608000       0.27073190       0.63221870
   217  H          0.55630000       0.68190000       0.32780000
   218  H          0.44370000       0.31810000       0.67220000
   219  H          0.49560000       0.67940000       0.41250000
   220  H          0.50440000       0.32060000       0.58750000
   221  C          0.63702000       0.79364810       0.38111130
   222  C          0.36298000       0.20635190       0.61888870
   223  H          0.70640000       0.74040000       0.40250000
   224  H          0.29360000       0.25960000       0.59750000
   225  H          0.67880000       0.82970000       0.33380000
   226  H          0.32120000       0.17030000       0.66620000
   227  C          0.58792000       0.88204820       0.43184120
   228  C          0.41208000       0.11795180       0.56815880
