data_MELFIT09
_symmetry_space_group_name_H-M    'P1'
_symmetry_Int_Tables_number       1
loop_
_symmetry_equiv_pos_site_id
_symmetry_equiv_pos_as_xyz
1 x,y,z
_cell_length_a                   21.7104
_cell_length_b                   13.1072
_cell_length_c                   7.656015
_cell_angle_alpha                90.0
_cell_angle_beta                 90.0
_cell_angle_gamma                90.0
loop_
_atom_site_label
_atom_site_type_symbol
_atom_site_fract_x
_atom_site_fract_y
_atom_site_fract_z
     1  Cl         0.02208218       0.71863300       0.46051400
     2  Cl         0.97791782       0.28136700       0.96051400
     3  Cl         0.47791782       0.21863300       0.96051400
     4  Cl         0.52208218       0.78136700       0.46051400
     5  Cl         0.14616019       0.83146300       0.39067400
     6  Cl         0.85383981       0.16853700       0.89067400
     7  Cl         0.35383981       0.33146300       0.89067400
     8  Cl         0.64616019       0.66853700       0.39067400
     9  O          0.73635500       0.40661900       0.41329160
    10  O          0.26364500       0.59338100       0.91329160
    11  O          0.76364500       0.90661900       0.91329160
    12  O          0.23635500       0.09338100       0.41329160
    13  O          0.49217500       0.49752100      -0.00697830
    14  O          0.50782500       0.50247900       0.49302170
    15  O          0.00782500      -0.00247900       0.49302170
    16  O          0.99217500       0.00247900      -0.00697830
    17  N          0.56553600       0.44351100       0.80772190
    18  N          0.43446400       0.55648900       0.30772190
    19  N          0.93446400       0.94351100       0.30772190
    20  N          0.06553600       0.05648900       0.80772190
    21  H          0.54160000       0.45920000       0.71890000
    22  H          0.45840000       0.54080000       0.21890000
    23  H          0.95840000       0.95920000       0.21890000
    24  H          0.04160000       0.04080000       0.71890000
    25  N          0.89157600       0.56068100       0.95278000
    26  N          0.10842400       0.43931900       0.45278000
    27  N          0.60842400       0.06068100       0.45278000
    28  N          0.39157600       0.93931900       0.95278000
    29  N          0.99126600       0.68668100       0.83658000
    30  N          0.00873400       0.31331900       0.33658000
    31  N          0.50873400       0.18668100       0.33658000
    32  N          0.49126600       0.81331900       0.83658000
    33  C          0.58440800       0.42736140       0.11982000
    34  C          0.41559200       0.57263860       0.61982000
    35  C          0.91559200       0.92736140       0.61982000
    36  C          0.08440800       0.07263860       0.11982000
    37  H          0.55850000       0.40930000       0.22150000
    38  H          0.44150000       0.59070000       0.72150000
    39  H          0.94150000       0.90930000       0.72150000
    40  H          0.05850000       0.09070000       0.22150000
    41  H          0.61020000       0.48650000       0.15330000
    42  H          0.38980000       0.51350000       0.65330000
    43  H          0.88980000       0.98650000       0.65330000
    44  H          0.11020000       0.01350000       0.15330000
    45  C          0.54335700       0.45787120       0.97072000
    46  C          0.45664300       0.54212880       0.47072000
    47  C          0.95664300       0.95787120       0.47072000
    48  C          0.04335700       0.04212880       0.97072000
    49  C          0.62500700       0.40473110       0.77162000
    50  C          0.37499300       0.59526890       0.27162000
    51  C          0.87499300       0.90473110       0.27162000
    52  C          0.12500700       0.09526890       0.77162000
    53  C          0.65110700       0.42174110       0.60812000
    54  C          0.34889300       0.57825890       0.10812000
    55  C          0.84889300       0.92174110       0.10812000
    56  C          0.15110700       0.07825890       0.60812000
    57  H          0.62880000       0.45720000       0.52030000
    58  H          0.37120000       0.54280000       0.02030000
    59  H          0.87120000       0.95720000       0.02030000
    60  H          0.12880000       0.04280000       0.52030000
    61  C          0.71027700       0.38613110       0.57512000
    62  C          0.28972300       0.61386890       0.07512000
    63  C          0.78972300       0.88613110       0.07512000
    64  C          0.21027700       0.11386890       0.57512000
    65  C          0.79325800       0.46323160       0.42583000
    66  C          0.20674200       0.53676840       0.92583000
    67  C          0.70674200       0.96323160       0.92583000
    68  C          0.29325800       0.03676840       0.42583000
    69  H          0.82050000       0.43090000       0.51340000
    70  H          0.17950000       0.56910000       0.01340000
    71  H          0.67950000       0.93090000       0.01340000
    72  H          0.32050000       0.06910000       0.51340000
    73  H          0.78450000       0.53390000       0.46450000
    74  H          0.21550000       0.46610000       0.96450000
    75  H          0.71550000       0.03390000       0.96450000
    76  H          0.28450000       0.96610000       0.46450000
    77  C          0.82474800       0.46521150       0.25173000
    78  C          0.17525200       0.53478850       0.75173000
    79  C          0.67525200       0.96521150       0.75173000
    80  C          0.32474800       0.03478850       0.25173000
    81  H          0.82900000       0.39420000       0.20950000
    82  H          0.17100000       0.60580000       0.70950000
    83  H          0.67100000       0.89420000       0.70950000
    84  H          0.32900000       0.10580000       0.20950000
    85  H          0.86680000       0.49300000       0.26780000
    86  H          0.13320000       0.50700000       0.76780000
    87  H          0.63320000      -0.00700000       0.76780000
    88  H          0.36680000       0.00700000       0.26780000
    89  C          0.79251800       0.52708140       0.11213000
    90  C          0.20748200       0.47291860       0.61213000
    91  C          0.70748200       0.02708140       0.61213000
    92  C          0.29251800       0.97291860       0.11213000
    93  H          0.78830000       0.59850000       0.15250000
    94  H          0.21170000       0.40150000       0.65250000
    95  H          0.71170000       0.09850000       0.65250000
    96  H          0.28830000       0.90150000       0.15250000
    97  H          0.75060000       0.49930000       0.09370000
    98  H          0.24940000       0.50070000       0.59370000
    99  H          0.74940000      -0.00070000       0.59370000
   100  H          0.25060000       0.00070000       0.09370000
   101  C          0.82728800       0.52569150       0.93947000
   102  C          0.17271200       0.47430850       0.43947000
   103  C          0.67271200       0.02569150       0.43947000
   104  C          0.32728800       0.97430850       0.93947000
   105  H          0.82700000       0.45530000       0.89280000
   106  H          0.17300000       0.54470000       0.39280000
   107  H          0.67300000       0.95530000       0.39280000
   108  H          0.32700000       0.04470000       0.89280000
   109  H          0.80530000       0.56970000       0.85490000
   110  H          0.19470000       0.43030000       0.35490000
   111  H          0.69470000       0.06970000       0.35490000
   112  H          0.30530000       0.93030000       0.85490000
   113  C          0.89514800       0.66934120      -0.00372000
   114  C          0.10485200       0.33065880       0.49628000
   115  C          0.60485200       0.16934120       0.49628000
   116  C          0.39514800       0.83065880      -0.00372000
   117  H          0.87490000       0.68140000       0.11040000
   118  H          0.12510000       0.31860000       0.61040000
   119  H          0.62510000       0.18140000       0.61040000
   120  H          0.37490000       0.81860000       0.11040000
   121  H          0.87290000       0.70950000       0.90680000
   122  H          0.12710000       0.29050000       0.40680000
   123  H          0.62710000       0.20950000       0.40680000
   124  H          0.37290000       0.79050000       0.90680000
   125  C          0.96187800       0.70482130       0.00532000
   126  C          0.03812200       0.29517870       0.50532000
   127  C          0.53812200       0.20482130       0.50532000
   128  C          0.46187800       0.79517870       0.00532000
   129  H          0.96340000       0.77840000       0.03390000
   130  H          0.03660000       0.22160000       0.53390000
   131  H          0.53660000       0.27840000       0.53390000
   132  H          0.46340000       0.72160000       0.03390000
   133  H          0.98400000       0.66690000       0.09790000
   134  H          0.01600000       0.33310000       0.59790000
   135  H          0.51600000       0.16690000       0.59790000
   136  H          0.48400000       0.83310000       0.09790000
   137  C          0.04868700       0.73557110       0.80708000
   138  C          0.95131300       0.26442890       0.30708000
   139  C          0.45131300       0.23557110       0.30708000
   140  C          0.54868700       0.76442890       0.80708000
   141  C          0.06803700       0.75475120       0.63528000
   142  C          0.93196300       0.24524880       0.13528000
   143  C          0.43196300       0.25475120       0.13528000
   144  C          0.56803700       0.74524880       0.63528000
   145  C          0.12342700       0.80480110       0.60368000
   146  C          0.87657300       0.19519890       0.10368000
   147  C          0.37657300       0.30480110       0.10368000
   148  C          0.62342700       0.69519890       0.60368000
   149  C          0.16069800       0.83706120       0.73897000
   150  C          0.83930200       0.16293880       0.23897000
   151  C          0.33930200       0.33706120       0.23897000
   152  C          0.66069800       0.66293880       0.73897000
   153  H          0.19880000       0.87010000       0.71600000
   154  H          0.80120000       0.12990000       0.21600000
   155  H          0.30120000       0.37010000       0.21600000
   156  H          0.69880000       0.62990000       0.71600000
   157  C          0.14136800       0.82015130       0.90867000
   158  C          0.85863200       0.17984870       0.40867000
   159  C          0.35863200       0.32015130       0.40867000
   160  C          0.64136800       0.67984870       0.90867000
   161  H          0.16620000       0.84290000       0.00320000
   162  H          0.83380000       0.15710000       0.50320000
   163  H          0.33380000       0.34290000       0.50320000
   164  H          0.66620000       0.65710000       0.00320000
   165  C          0.08609800       0.77035120       0.94278000
   166  C          0.91390200       0.22964880       0.44278000
   167  C          0.41390200       0.27035120       0.44278000
   168  C          0.58609800       0.72964880       0.94278000
   169  H          0.07360000       0.75980000       0.06030000
   170  H          0.92640000       0.24020000       0.56030000
   171  H          0.42640000       0.25980000       0.56030000
   172  H          0.57360000       0.74020000       0.06030000
   173  C          0.99014800       0.57651120       0.79707000
   174  C          0.00985200       0.42348880       0.29707000
   175  C          0.50985200       0.07651120       0.29707000
   176  C          0.49014800       0.92348880       0.79707000
   177  H          0.01220000       0.53830000       0.88940000
   178  H          0.98780000       0.46170000       0.38940000
   179  H          0.48780000       0.03830000       0.38940000
   180  H          0.51220000       0.96170000       0.88940000
   181  H          0.01090000       0.56340000       0.68420000
   182  H          0.98910000       0.43660000       0.18420000
   183  H          0.48910000       0.06340000       0.18420000
   184  H          0.51090000       0.93660000       0.68420000
   185  C          0.92355800       0.54167120       0.78798000
   186  C          0.07644200       0.45832880       0.28798000
   187  C          0.57644200       0.04167120       0.28798000
   188  C          0.42355800       0.95832880       0.78798000
   189  H          0.90230000       0.57850000       0.69260000
   190  H          0.09770000       0.42150000       0.19260000
   191  H          0.59770000       0.07850000       0.19260000
   192  H          0.40230000       0.92150000       0.69260000
   193  H          0.92220000       0.46780000       0.76110000
   194  H          0.07780000       0.53220000       0.26110000
   195  H          0.57780000       0.96780000       0.26110000
   196  H          0.42220000       0.03220000       0.76110000
   197  C          0.74187700       0.33126130       0.70113000
   198  C          0.25812300       0.66873870       0.20113000
   199  C          0.75812300       0.83126130       0.20113000
   200  C          0.24187700       0.16873870       0.70113000
   201  H          0.78180000       0.30510000       0.67680000
   202  H          0.21820000       0.69490000       0.17680000
   203  H          0.71820000       0.80510000       0.17680000
   204  H          0.28180000       0.19490000       0.67680000
   205  C          0.71496700       0.31484120       0.86242000
   206  C          0.28503300       0.68515880       0.36242000
   207  C          0.78503300       0.81484120       0.36242000
   208  C          0.21496700       0.18515880       0.86242000
   209  H          0.73690000       0.27730000       0.94850000
   210  H          0.26310000       0.72270000       0.44850000
   211  H          0.76310000       0.77730000       0.44850000
   212  H          0.23690000       0.22270000       0.94850000
   213  C          0.65662700       0.35193110       0.90173000
   214  C          0.34337300       0.64806890       0.40173000
   215  C          0.84337300       0.85193110       0.40173000
   216  C          0.15662700       0.14806890       0.90173000
   217  C          0.62639700       0.33730130       0.07692000
   218  C          0.37360300       0.66269870       0.57692000
   219  C          0.87360300       0.83730130       0.57692000
   220  C          0.12639700       0.16269870       0.07692000
   221  H          0.65840000       0.33080000       0.16830000
   222  H          0.34160000       0.66920000       0.66830000
   223  H          0.84160000       0.83080000       0.66830000
   224  H          0.15840000       0.16920000       0.16830000
   225  H          0.60190000       0.27350000       0.07590000
   226  H          0.39810000       0.72650000       0.57590000
   227  H          0.89810000       0.77350000       0.57590000
   228  H          0.10190000       0.22650000       0.07590000
