data_MENMIB02
_symmetry_space_group_name_H-M    'P1'
_symmetry_Int_Tables_number       1
loop_
_symmetry_equiv_pos_site_id
_symmetry_equiv_pos_as_xyz
1 x,y,z
_cell_length_a                   7.3613
_cell_length_b                   13.8448
_cell_length_c                   28.9299
_cell_angle_alpha                90.0
_cell_angle_beta                 92.823
_cell_angle_gamma                90.0
loop_
_atom_site_label
_atom_site_type_symbol
_atom_site_fract_x
_atom_site_fract_y
_atom_site_fract_z
     1  C          0.05530000       0.82781800       0.99497000
     2  C          0.94470000       0.32781800       0.00503000
     3  N          0.03320000       0.90831500       0.01786000
     4  N          0.96680000       0.40831500       0.98214000
     5  N         -0.01830000       0.98121400       0.98566000
     6  N          0.01830000       0.48121400       0.01434000
     7  C          0.96360000       0.94291400       0.94757000
     8  C          0.03640000       0.44291400       0.05243000
     9  C          0.92070000       0.98721500       0.90297000
    10  C          0.07930000       0.48721500       0.09703000
    11  H          0.82660000       0.94990000       0.88650000
    12  H          0.17340000       0.44990000       0.11350000
    13  H          0.87370000       0.05170000       0.90760000
    14  H          0.12630000       0.55170000       0.09240000
    15  N          0.08030000      -0.00668700       0.87457000
    16  N          0.91970000       0.49331300       0.12543000
    17  C          0.14230000       0.90801500       0.85877000
    18  C          0.85770000       0.40801500       0.14123000
    19  C          0.07030000       0.81411400       0.86697000
    20  C          0.92970000       0.31411400       0.13303000
    21  C          0.04730000       0.74961500       0.82938000
    22  C          0.95270000       0.24961500       0.17062000
    23  H          0.08260000       0.76810000       0.80020000
    24  H          0.91740000       0.26810000       0.19980000
    25  C          0.97170000       0.66041400       0.83528000
    26  C          0.02830000       0.16041400       0.16472000
    27  Cl         0.94928900       0.58245000       0.78782000
    28  Cl         0.05071100       0.08245000       0.21218000
    29  C          0.90070000       0.63151800       0.87388000
    30  C          0.09930000       0.13151800       0.12612000
    31  H          0.83700000       0.57380000       0.87520000
    32  H          0.16300000       0.07380000       0.12480000
    33  C          0.92660000       0.69301600       0.91388000
    34  C          0.07340000       0.19301600       0.08612000
    35  H          0.89600000       0.67090000       0.94270000
    36  H          0.10400000       0.17090000       0.05730000
    37  C         -0.00330000       0.78241300       0.90946000
    38  C          0.00330000       0.28241300       0.09054000
    39  N          0.01430000       0.84371200       0.94846000
    40  N         -0.01430000       0.34371200       0.05154000
    41  C          0.11140000       0.73261600       0.01268000
    42  C          0.88860000       0.23261600       0.98732000
    43  H          0.24170000       0.73020000       0.01650000
    44  H          0.75830000       0.23020000       0.98350000
    45  H          0.07030000       0.68360000       0.99110000
    46  H          0.92970000       0.18360000       0.00890000
    47  H          0.05910000       0.72160000       0.04190000
    48  H          0.94090000       0.22160000       0.95810000
    49  C          0.30830000       0.91520000       0.82978000
    50  C          0.69170000       0.41520000       0.17022000
    51  C          0.31440000      -0.00780000       0.79888000
    52  C          0.68560000       0.49220000       0.20112000
    53  H          0.22050000       0.03750000       0.79560000
    54  H          0.77950000       0.53750000       0.20440000
    55  C          0.47940000      -0.00180000       0.77138000
    56  C          0.52060000       0.49820000       0.22862000
    57  H          0.49230000       0.04640000       0.74920000
    58  H          0.50770000       0.54640000       0.25080000
    59  C          0.61330000       0.93020000       0.78019000
    60  C          0.38670000       0.43020000       0.21981000
    61  H          0.71810000       0.93380000       0.76360000
    62  H          0.28190000       0.43380000       0.23640000
    63  C          0.60340000       0.85920000       0.81008000
    64  C          0.39660000       0.35920000       0.18992000
    65  H          0.69400000       0.81260000       0.81290000
    66  H          0.30600000       0.31260000       0.18710000
    67  C          0.45730000       0.85421700       0.83658000
    68  C          0.54270000       0.35421700       0.16342000
    69  H          0.45620000       0.80870000       0.86020000
    70  H          0.54380000       0.30870000       0.13980000
    71  C          0.53730000       0.88321700       0.98347000
    72  C          0.46270000       0.38321700       0.01653000
    73  N          0.54430000       0.81051400       0.95696000
    74  N          0.45570000       0.31051400       0.04304000
    75  N          0.61330000       0.72941300       0.98656000
    76  N          0.38670000       0.22941300       0.01344000
    77  C          0.62430000       0.76741700       0.02717000
    78  C          0.37570000       0.26741700       0.97283000
    79  C          0.69840000       0.71641800       0.07448000
    80  C          0.30160000       0.21641800       0.92552000
    81  H          0.75400000       0.65430000       0.06880000
    82  H          0.24600000       0.15430000       0.93120000
    83  H          0.78320000       0.75720000       0.09200000
    84  H          0.21680000       0.25720000       0.90800000
    85  N          0.51230000       0.70541300       0.09886000
    86  N          0.48770000       0.20541300       0.90114000
    87  C          0.44140000       0.78491500       0.11278000
    88  C          0.55860000       0.28491500       0.88722000
    89  C          0.50730000       0.88271300       0.10978000
    90  C          0.49270000       0.38271300       0.89022000
    91  C          0.51630000       0.94531600       0.14746000
    92  C          0.48370000       0.44531600       0.85254000
    93  H          0.48760000       0.92090000       0.17610000
    94  H          0.51240000       0.42090000       0.82390000
    95  C          0.56530000       0.04031600       0.14517000
    96  C          0.43470000       0.54031600       0.85483000
    97  Cl         0.55671000       0.10695000       0.19642000
    98  Cl         0.44329000       0.60695000       0.80358000
    99  C          0.62440000       0.07551900       0.10607000
   100  C          0.37560000       0.57551900       0.89393000
   101  H          0.66580000       0.13870000       0.10480000
   102  H          0.33420000       0.63870000       0.89520000
   103  C          0.62230000       0.01641500       0.06607000
   104  C          0.37770000       0.51641500       0.93393000
   105  H          0.65430000       0.04180000       0.03780000
   106  H          0.34570000       0.54180000       0.96220000
   107  C          0.57230000       0.92291400       0.06916000
   108  C          0.42770000       0.42291400       0.93084000
   109  N          0.57530000       0.86371200       0.02666000
   110  N          0.42470000       0.36371200       0.97334000
   111  C          0.46130000       0.97651700       0.96538000
   112  C          0.53870000       0.47651700       0.03462000
   113  H          0.40950000       0.96730000       0.93450000
   114  H          0.59050000       0.46730000       0.06550000
   115  H          0.55590000       0.02390000       0.96490000
   116  H          0.44410000       0.52390000       0.03510000
   117  H          0.36790000      -0.00160000       0.98500000
   118  H          0.63210000       0.49840000       0.01500000
   119  C          0.27430000       0.77061400       0.14097000
   120  C          0.72570000       0.27061400       0.85903000
   121  C          0.25140000       0.68371700       0.16677000
   122  C          0.74860000       0.18371700       0.83323000
   123  H          0.33960000       0.63570000       0.16730000
   124  H          0.66040000       0.13570000       0.83270000
   125  C          0.09850000       0.67330000       0.19029000
   126  C          0.90150000       0.17330000       0.80971000
   127  H          0.08740000       0.61570000       0.20680000
   128  H          0.91260000       0.11570000       0.79320000
   129  C          0.95220000       0.74030000       0.19201200
   130  C          0.04780000       0.24030000       0.80798800
   131  H          0.85470000       0.73200000       0.21060000
   132  H          0.14530000       0.23200000       0.78940000
   133  C          0.97570000       0.82220000       0.16189000
   134  C          0.02430000       0.32220000       0.83811000
   135  H          0.88010000       0.86470000       0.15620000
   136  H          0.11990000       0.36470000       0.84380000
   137  C          0.14330000       0.83741800       0.14068000
   138  C          0.85670000       0.33741800       0.85932000
   139  H          0.16250000       0.89610000       0.12590000
   140  H          0.83750000       0.39610000       0.87410000
   141  C          0.93130000       0.98901900       0.49721000
   142  C          0.06870000       0.48901900       0.50279000
   143  N          0.97830000       0.91021500       0.52096000
   144  N          0.02170000       0.41021500       0.47904000
   145  N          0.03530000       0.84311400       0.48766000
   146  N          0.96470000       0.34311400       0.51234000
   147  C          0.03130000       0.88971700       0.44888000
   148  C          0.96870000       0.38971700       0.55112000
   149  C          0.07830000       0.84981700       0.40497000
   150  C          0.92170000       0.34981700       0.59503000
   151  H          0.13640000       0.78760000       0.40990000
   152  H          0.86360000       0.28760000       0.59010000
   153  H          0.16340000       0.89230000       0.39050000
   154  H          0.83660000       0.39230000       0.60950000
   155  N          0.91020000       0.83761300       0.37316000
   156  N          0.08980000       0.33761300       0.62684000
   157  C          0.83430000       0.91511600       0.35908000
   158  C          0.16570000       0.41511600       0.64092000
   159  C          0.87830000       0.01761400       0.37207000
   160  C          0.12170000       0.51761400       0.62793000
   161  C          0.87630000       0.08751600       0.33648000
   162  C          0.12370000       0.58751600       0.66352000
   163  H          0.84360000       0.06870000       0.30630000
   164  H          0.15640000       0.56870000       0.69370000
   165  C          0.92230000       0.18281600       0.34499000
   166  C          0.07770000       0.68281600       0.65501000
   167  Cl         0.89721100       0.26635000       0.30222000
   168  Cl         0.10278900       0.76635000       0.69778000
   169  C         -0.01270000       0.21051400       0.39106000
   170  C          0.01270000       0.71051400       0.60894000
   171  H          0.01260000       0.27480000       0.39800000
   172  H         -0.01260000       0.77480000       0.60200000
   173  C          0.01230000       0.14131600       0.42417000
   174  C         -0.01230000       0.64131600       0.57583000
   175  H          0.06760000       0.15780000       0.45250000
   176  H          0.93240000       0.65780000       0.54750000
   177  C          0.95730000       0.04921600       0.41707000
   178  C          0.04270000       0.54921600       0.58293000
   179  N          0.96820000       0.98081200       0.45235000
   180  N          0.03180000       0.48081200       0.54765000
   181  C          0.84830000       0.07451700       0.51886000
   182  C          0.15170000       0.57451700       0.48114000
   183  H          0.85290000       0.06660000       0.55180000
   184  H          0.14710000       0.56660000       0.44820000
   185  H          0.72410000       0.08070000       0.50760000
   186  H          0.27590000       0.58070000       0.49240000
   187  H          0.91460000       0.13150000       0.51110000
   188  H          0.08540000       0.63150000       0.48890000
   189  C          0.66430000       0.90451700       0.32948000
   190  C          0.33570000       0.40451700       0.67052000
   191  C          0.50030000       0.94881800       0.33377000
   192  C          0.49970000       0.44881800       0.66623000
   193  H          0.48830000      -0.01000000       0.35880000
   194  H          0.51170000       0.49000000       0.64120000
   195  C          0.34730000       0.93691900       0.30337000
   196  C          0.65270000       0.43691900       0.69663000
   197  H          0.24590000       0.97630000       0.30540000
   198  H          0.75410000       0.47630000       0.69460000
   199  C          0.35240000       0.86820000       0.27139000
   200  C          0.64760000       0.36820000       0.72861000
   201  H          0.24440000       0.84870000       0.25550000
   202  H          0.75560000       0.34870000       0.74450000
   203  C          0.50050000       0.82720000       0.26239000
   204  C          0.49950000       0.32720000       0.73761000
   205  H          0.49870000       0.78660000       0.23660000
   206  H          0.50130000       0.28660000       0.76340000
   207  C          0.68230000       0.83861700       0.28977000
   208  C          0.31770000       0.33861700       0.71023000
   209  H          0.78920000       0.80810000       0.28240000
   210  H          0.21080000       0.30810000       0.71760000
   211  C          0.48730000       0.91820000       0.48079000
   212  C          0.51270000       0.41820000       0.51921000
   213  N          0.43930000      -0.00548500       0.45386000
   214  N          0.56070000       0.49451500       0.54614000
   215  N          0.36930000       0.06151600       0.48406000
   216  N          0.63070000       0.56151600       0.51594000
   217  C          0.38130000       0.02820000       0.52618000
   218  C          0.61870000       0.52820000       0.47382000
   219  C          0.31630000       0.06820000       0.57199000
   220  C          0.68370000       0.56820000       0.42801000
   221  H          0.24090000       0.12460000       0.56630000
   222  H          0.75910000       0.62460000       0.43370000
   223  H          0.24620000       0.01980000       0.58760000
   224  H          0.75380000       0.51980000       0.41240000
   225  N          0.47730000       0.09271600       0.59937000
   226  N          0.52270000       0.59271600       0.40063000
   227  C          0.57230000       0.02261500       0.61687000
   228  C          0.42770000       0.52261500       0.38313000
   229  C          0.53330000       0.91961400       0.60967000
   230  C          0.46670000       0.41961400       0.39033000
   231  C          0.56730000       0.85891700       0.64797000
   232  C          0.43270000       0.35891700       0.35203000
   233  H          0.60730000       0.88480000       0.67630000
   234  H          0.39270000       0.38480000       0.32370000
   235  C          0.54230000       0.76320000       0.64338000
   236  C          0.45770000       0.26320000       0.35662000
   237  Cl         0.58621100       0.68925000       0.69222000
   238  Cl         0.41378900       0.18925000       0.30778000
   239  C          0.49640000       0.71651600       0.60236000
   240  C          0.50360000       0.21651600       0.39764000
   241  H          0.49510000       0.64950000       0.59980000
   242  H          0.50490000       0.14950000       0.40020000
   243  C          0.45130000       0.77591900       0.56508000
   244  C          0.54870000       0.27591900       0.43492000
   245  H          0.40620000       0.74780000       0.53750000
   246  H          0.59380000       0.24780000       0.46250000
   247  C          0.46830000       0.87411600       0.56687000
   248  C          0.53170000       0.37411600       0.43313000
   249  N          0.44020000       0.93311400       0.52636000
   250  N          0.55980000       0.43311400       0.47364000
   251  C          0.56530000       0.82991700       0.46518000
   252  C          0.43470000       0.32991700       0.53482000
   253  H          0.49250000       0.77640000       0.47430000
   254  H          0.50750000       0.27640000       0.52570000
   255  H          0.68660000       0.82320000       0.47850000
   256  H          0.31340000       0.32320000       0.52150000
   257  H          0.56910000       0.83090000       0.43200000
   258  H          0.43090000       0.33090000       0.56800000
   259  C          0.72830000       0.04611500       0.64396000
   260  C          0.27170000       0.54611500       0.35604000
   261  C          0.88940000      -0.00408300       0.64779000
   262  C          0.11060000       0.49591700       0.35221000
   263  H          0.88720000       0.93570000       0.63340000
   264  H          0.11280000       0.43570000       0.36660000
   265  C          0.04730000       0.02151600       0.66899000
   266  C          0.95270000       0.52151600       0.33101000
   267  H          0.14650000       0.98000000       0.66830000
   268  H          0.85350000       0.48000000       0.33170000
   269  C          0.06640000       0.11711900       0.69398000
   270  C          0.93360000       0.61711900       0.30602000
   271  H          0.17420000       0.13760000       0.70890000
   272  H          0.82580000       0.63760000       0.29110000
   273  C          0.92140000       0.16720000       0.69241000
   274  C          0.07860000       0.66720000       0.30759000
   275  H          0.92460000       0.22500000       0.70850000
   276  H          0.07540000       0.72500000       0.29150000
   277  C          0.74740000       0.14191700       0.66808000
   278  C          0.25260000       0.64191700       0.33192000
   279  H          0.65040000       0.18500000       0.66740000
   280  H          0.34960000       0.68500000       0.33260000
