data_MENMIB01
_symmetry_space_group_name_H-M    'P1'
_symmetry_Int_Tables_number       1
loop_
_symmetry_equiv_pos_site_id
_symmetry_equiv_pos_as_xyz
1 x,y,z
_cell_length_a                   7.2758
_cell_length_b                   9.7745
_cell_length_c                   11.0745
_cell_angle_alpha                90.803
_cell_angle_beta                 95.345
_cell_angle_gamma                109.465
loop_
_atom_site_label
_atom_site_type_symbol
_atom_site_fract_x
_atom_site_fract_y
_atom_site_fract_z
     1  Cl         0.36061000       0.12126600       0.12950400
     2  Cl         0.63939000       0.87873400       0.87049600
     3  N          0.27612000       0.07962000       0.59383860
     4  N          0.72388000       0.92038000       0.40616140
     5  N          0.52963000       0.39332000       0.62993860
     6  N          0.47037000       0.60668000       0.37006140
     7  N          0.21943000       0.00332000       0.40311860
     8  N          0.78057000      -0.00332000       0.59688140
     9  N          0.24353000       0.15122000       0.40851850
    10  N          0.75647000       0.84878000       0.59148150
    11  C          0.19493000      -0.00972000       0.91138000
    12  C          0.80507000       0.00972000       0.08862000
    13  C          0.34123000       0.10572000       0.97258000
    14  C          0.65877000       0.89428000       0.02742000
    15  C          0.46733000       0.21222000       0.90998000
    16  C          0.53267000       0.78778000       0.09002000
    17  C          0.44683000       0.20702000       0.78338000
    18  C          0.55317000       0.79298000       0.21662000
    19  C          0.29953000       0.08892000       0.72238000
    20  C          0.70047000       0.91108000       0.27762000
    21  C          0.17343000       0.98318000       0.78628000
    22  C          0.82657000       0.01682000       0.21372000
    23  C          0.57993000       0.32982000       0.72108000
    24  C          0.42007000       0.67018000       0.27892000
    25  C          0.32413000       0.34052000       0.57738000
    26  C          0.67587000       0.65948000       0.42262000
    27  C          0.27693000       0.19362000       0.52228000
    28  C          0.72307000       0.80638000       0.47772000
    29  C          0.23893000       0.96258000       0.51408000
    30  C          0.76107000       0.03742000       0.48592000
    31  C          0.78723000       0.38552000       0.77248000
    32  C          0.21277000       0.61448000       0.22752000
    33  C          0.87693000       0.28992000       0.81748000
    34  C          0.12307000       0.71008000       0.18252000
    35  C          0.07013000       0.34062000       0.86298000
    36  C          0.92987000       0.65938000       0.13702000
    37  C          0.17623000       0.48653000       0.86348000
    38  C          0.82377000       0.51347000       0.13652000
    39  C          0.08984000       0.58133000       0.81977000
    40  C          0.91016000       0.41867000       0.18023000
    41  C          0.89403000       0.53272000       0.77408000
    42  C          0.10597000       0.46728000       0.22592000
    43  C          0.22987000       0.81557000       0.54758000
    44  C          0.77013000       0.18443000       0.45242000
    45  H          0.10040000       0.91440000       0.95660000
    46  H          0.89960000       0.08560000       0.04340000
    47  H          0.56470000       0.30460000       0.95640000
    48  H          0.43530000       0.69540000       0.04360000
    49  H          0.08610000       0.89780000       0.74230000
    50  H          0.91390000       0.10220000       0.25770000
    51  H          0.79730000       0.17520000       0.81260000
    52  H          0.20270000       0.82480000       0.18740000
    53  H          0.12480000       0.26690000       0.88920000
    54  H          0.87520000       0.73310000       0.11080000
    55  H          0.32230000       0.52720000       0.88690000
    56  H          0.67770000       0.47280000       0.11310000
    57  H          0.16740000       0.69720000       0.81870000
    58  H          0.83260000       0.30280000       0.18130000
    59  H          0.83390000       0.60370000       0.75110000
    60  H          0.16610000       0.39630000       0.24890000
    61  H          0.22980000       0.33190000       0.64400000
    62  H          0.77020000       0.66810000       0.35600000
    63  H          0.32730000       0.40830000       0.51750000
    64  H          0.67270000       0.59170000       0.48250000
    65  H          0.22910000       0.75030000       0.47420000
    66  H          0.77090000       0.24970000       0.52580000
    67  H          0.34400000       0.81880000       0.59510000
    68  H          0.65600000       0.18120000       0.40490000
    69  H          0.11530000       0.76830000       0.59510000
    70  H          0.88470000       0.23170000       0.40490000
