data_MENMIB
_symmetry_space_group_name_H-M    'P1'
_symmetry_Int_Tables_number       1
loop_
_symmetry_equiv_pos_site_id
_symmetry_equiv_pos_as_xyz
1 x,y,z
_cell_length_a                   7.4141
_cell_length_b                   13.8064
_cell_length_c                   15.2694
_cell_angle_alpha                109.172
_cell_angle_beta                 92.156
_cell_angle_gamma                93.036
loop_
_atom_site_label
_atom_site_type_symbol
_atom_site_fract_x
_atom_site_fract_y
_atom_site_fract_z
     1  Cl         0.22786000       0.13703000       0.09963000
     2  Cl         0.77214000       0.86297000       0.90037000
     3  N          0.26042000       0.97862000       0.41548000
     4  N          0.73958000       0.02138000       0.58452000
     5  N          0.12582000       0.78041000       0.26418000
     6  N          0.87418000       0.21959000       0.73582000
     7  N          0.26862000       0.96179000       0.55259000
     8  N          0.73138000       0.03821000       0.44741000
     9  N          0.29832000       0.86571000       0.48659000
    10  N          0.70168000       0.13429000       0.51341000
    11  C          0.32772000       0.15131000       0.27581000
    12  C          0.67228000       0.84869000       0.72419000
    13  C          0.23602000       0.09231000       0.19391000
    14  C          0.76398000       0.90769000       0.80609000
    15  C          0.15102000      -0.00491000       0.18021000
    16  C          0.84898000       0.00491000       0.81979000
    17  C          0.15732000       0.95639000       0.25379000
    18  C          0.84268000       0.04361000       0.74621000
    19  C          0.24942000       0.01541000       0.33899000
    20  C          0.75058000       0.98459000       0.66101000
    21  C          0.33612000       0.11061000       0.34941000
    22  C          0.66388000       0.88939000       0.65059000
    23  C          0.06762000       0.85289000       0.23681000
    24  C          0.93238000       0.14711000       0.76319000
    25  C          0.30932000       0.79929000       0.31261000
    26  C          0.69068000       0.20071000       0.68739000
    27  C          0.28972000       0.87669000       0.40671000
    28  C          0.71028000       0.12331000       0.59329000
    29  C          0.24792000       0.02581000       0.50621000
    30  C          0.75208000       0.97419000       0.49379000
    31  C          0.88418000       0.83389000       0.18731000
    32  C          0.11582000       0.16611000       0.81269000
    33  C          0.75978000       0.90979000       0.20781000
    34  C          0.24022000       0.09021000       0.79219000
    35  C          0.59308000       0.89169000       0.15951000
    36  C          0.40692000       0.10831000       0.84049000
    37  C          0.55147000       0.79709000       0.08721000
    38  C          0.44853000       0.20291000       0.91279000
    39  C          0.67298000       0.72299000       0.06541000
    40  C          0.32702000       0.27701000       0.93459000
    41  C          0.84578000       0.73909000       0.11331000
    42  C          0.15422000       0.26091000       0.88669000
    43  C          0.20942000       0.13691000       0.55051000
    44  C          0.79058000       0.86309000       0.44949000
    45  H          0.39110000       0.22610000       0.28350000
    46  H          0.60890000       0.77390000       0.71650000
    47  H          0.08230000       0.95130000       0.11430000
    48  H          0.91770000       0.04870000       0.88570000
    49  H          0.41010000       0.15350000       0.41400000
    50  H          0.58990000       0.84650000       0.58600000
    51  H          0.35490000       0.72890000       0.31920000
    52  H          0.64510000       0.27110000       0.68080000
    53  H          0.40470000       0.82940000       0.27460000
    54  H          0.59530000       0.17060000       0.72540000
    55  H          0.79390000       0.98280000       0.26160000
    56  H          0.20610000       0.01720000       0.73840000
    57  H          0.49530000       0.94400000       0.17670000
    58  H          0.50470000       0.05600000       0.82330000
    59  H          0.42200000       0.78340000       0.04890000
    60  H          0.57800000       0.21660000       0.95110000
    61  H          0.63710000       0.65090000       0.01070000
    62  H          0.36290000       0.34910000       0.98930000
    63  H          0.94410000       0.68180000       0.09450000
    64  H          0.05590000       0.31820000       0.90550000
    65  H          0.20680000       0.15480000       0.62480000
    66  H          0.79320000       0.84520000       0.37520000
    67  H          0.31400000       0.18550000       0.53520000
    68  H          0.68600000       0.81450000       0.46480000
    69  H          0.07990000       0.15020000       0.52330000
    70  H          0.92010000       0.84980000       0.47670000
    71  Cl         0.27856000       0.89027700       0.91937000
    72  Cl         0.72144000       0.10972300       0.08063000
    73  N          0.22901000       0.53012000       0.57833000
    74  N          0.77099000       0.46988000       0.42167000
    75  N          0.30322000       0.42081000       0.71632000
    76  N          0.69678000       0.57919000       0.28368000
    77  N          0.23072000       0.42671000       0.43481000
    78  N          0.76928000       0.57329000       0.56519000
    79  N          0.17022000       0.36861000       0.49162000
    80  N          0.82978000       0.63139000       0.50838000
    81  C          0.19142000       0.79499000       0.73839000
    82  C          0.80858000       0.20501000       0.26161000
    83  C          0.26632000       0.78589000       0.82229000
    84  C          0.73368000       0.21411000       0.17771000
    85  C          0.33232000       0.69319000       0.82489000
    86  C          0.66768000       0.30681000       0.17511000
    87  C          0.31942000       0.60829000       0.74481000
    88  C          0.68058000       0.39171000       0.25519000
    89  C          0.24292000       0.61689000       0.66091000
    90  C          0.75708000       0.38311000       0.33909000
    91  C          0.18032000       0.70869000       0.65869000
    92  C          0.81968000       0.29131000       0.34131000
    93  C          0.38412000       0.51059000       0.75159000
    94  C          0.61588000       0.48941000       0.24841000
    95  C          0.12882000       0.41069000       0.66299000
    96  C          0.87118000       0.58931000       0.33701000
    97  C          0.17282000       0.43159000       0.57531000
    98  C          0.82718000       0.56841000       0.42469000
    99  C          0.26612000       0.52139000       0.48919000
   100  C          0.73388000       0.47861000       0.51081000
   101  C          0.56522000       0.51749000       0.80169000
   102  C          0.43478000       0.48251000       0.19831000
   103  C          0.58782000       0.44799000       0.85219000
   104  C          0.41218000       0.55201000       0.14781000
   105  C          0.76132000       0.44959000       0.89439000
   106  C          0.23868000       0.55041000       0.10561000
   107  C          0.90053000       0.51719000       0.88989000
   108  C          0.09947000       0.48281000       0.11011000
   109  C          0.87602000       0.58809000       0.84329000
   110  C          0.12398000       0.41191000       0.15671000
   111  C          0.70522000       0.58709000       0.79829000
   112  C          0.29478000       0.41291000       0.20171000
   113  C          0.33382000       0.60649000       0.45849000
   114  C          0.66618000       0.39351000       0.54151000
   115  H          0.14430000       0.86710000       0.73660000
   116  H          0.85570000       0.13290000       0.26340000
   117  H          0.39240000       0.68840000       0.88870000
   118  H          0.60760000       0.31160000       0.11130000
   119  H          0.12230000       0.71350000       0.59440000
   120  H          0.87770000       0.28650000       0.40560000
   121  H          0.06620000       0.33390000       0.64680000
   122  H          0.93380000       0.66610000       0.35320000
   123  H          0.03880000       0.46570000       0.70220000
   124  H          0.96120000       0.53430000       0.29780000
   125  H          0.47750000       0.39650000       0.85780000
   126  H          0.52250000       0.60350000       0.14220000
   127  H          0.78510000       0.39630000       0.93120000
   128  H          0.21490000       0.60370000       0.06880000
   129  H          0.03120000       0.51560000       0.92280000
   130  H          0.96880000       0.48440000       0.07720000
   131  H         -0.01480000       0.64240000       0.84180000
   132  H          0.01480000       0.35760000       0.15820000
   133  H          0.68340000       0.64040000       0.76130000
   134  H          0.31660000       0.35960000       0.23870000
   135  H          0.35120000       0.57800000       0.38470000
   136  H          0.64880000       0.42200000       0.61530000
   137  H          0.23760000       0.66510000       0.47330000
   138  H          0.76240000       0.33490000       0.52670000
   139  H          0.46210000       0.63880000       0.49500000
   140  H          0.53790000       0.36120000       0.50500000
