data_MEUREA
_symmetry_space_group_name_H-M    'P1'
_symmetry_Int_Tables_number       1
loop_
_symmetry_equiv_pos_site_id
_symmetry_equiv_pos_as_xyz
1 x,y,z
_cell_length_a                   8.47676
_cell_length_b                   6.98095
_cell_length_c                   6.92276
_cell_angle_alpha                90.0
_cell_angle_beta                 90.0
_cell_angle_gamma                90.0
loop_
_atom_site_label
_atom_site_type_symbol
_atom_site_fract_x
_atom_site_fract_y
_atom_site_fract_z
     1  C          0.33050000       0.80510000       0.47270000
     2  C          0.83050000       0.69490000       0.52730000
     3  C          0.66950000       0.30510000       0.02730000
     4  C          0.16950000       0.19490000       0.97270000
     5  C          0.34760000       0.65350000       0.15710000
     6  C          0.84760000       0.84650000       0.84290000
     7  C          0.65240000       0.15350000       0.34290000
     8  C          0.15240000       0.34650000       0.65710000
     9  H          0.35300000       0.91400000       0.72700000
    10  H          0.85300000       0.58600000       0.27300000
    11  H          0.64700000       0.41400000       0.77300000
    12  H          0.14700000       0.08600000       0.22700000
    13  H          0.48900000       0.78200000       0.66600000
    14  H         -0.01100000       0.71800000       0.33400000
    15  H          0.51100000       0.28200000       0.83400000
    16  H          0.01100000       0.21800000       0.16600000
    17  H          0.41900000       0.59200000       0.07900000
    18  H          0.91900000       0.90800000       0.92100000
    19  H          0.58100000       0.09200000       0.42100000
    20  H          0.08100000       0.40800000       0.57900000
    21  H          0.26900000       0.54700000       0.17000000
    22  H          0.76900000       0.95300000       0.83000000
    23  H          0.73100000       0.04700000       0.33000000
    24  H          0.23100000       0.45300000       0.67000000
    25  H          0.29800000       0.75300000       0.09200000
    26  H          0.79800000       0.74700000       0.90800000
    27  H          0.70200000       0.25300000       0.40800000
    28  H          0.20200000       0.24700000       0.59200000
    29  H          0.49400000       0.65600000       0.38400000
    30  H         -0.00600000       0.84400000       0.61600000
    31  H          0.50600000       0.15600000       0.11600000
    32  H          0.00600000       0.34400000       0.88400000
    33  N          0.39820000       0.82960000       0.64590000
    34  N          0.89820000       0.67040000       0.35410000
    35  N          0.60180000       0.32960000       0.85410000
    36  N          0.10180000       0.17040000       0.14590000
    37  N          0.40870000       0.69640000       0.34600000
    38  N          0.90870000       0.80360000       0.65400000
    39  N          0.59130000       0.19640000       0.15400000
    40  N          0.09130000       0.30360000       0.84600000
    41  O          0.20000000       0.87840000       0.43370000
    42  O          0.70000000       0.62160000       0.56630000
    43  O          0.80000000       0.37840000       0.06630000
    44  O          0.30000000       0.12160000       0.93370000
