data_MEUREA02
_symmetry_space_group_name_H-M    'P1'
_symmetry_Int_Tables_number       1
loop_
_symmetry_equiv_pos_site_id
_symmetry_equiv_pos_as_xyz
1 x,y,z
_cell_length_a                   4.61476
_cell_length_b                   6.578112
_cell_length_c                   12.900416
_cell_angle_alpha                90.0
_cell_angle_beta                 90.4189
_cell_angle_gamma                90.0
loop_
_atom_site_label
_atom_site_type_symbol
_atom_site_fract_x
_atom_site_fract_y
_atom_site_fract_z
     1  O          0.40811200       0.51228000       0.17175000
     2  O          0.59188800       0.01228000       0.32825000
     3  O          0.59188800       0.48772000       0.82825000
     4  O          0.40811200      -0.01228000       0.67175000
     5  N          0.82701300       0.68301000       0.19708000
     6  N          0.17298700       0.18301000       0.30292000
     7  N          0.17298700       0.31699000       0.80292000
     8  N          0.82701300       0.81699000       0.69708000
     9  N          0.82491200       0.38499000       0.10745000
    10  N          0.17508800       0.88499000       0.39255000
    11  N          0.17508800       0.61501000       0.89255000
    12  N          0.82491200       0.11501000       0.60745000
    13  C          0.67561200       0.52518000       0.15955000
    14  C          0.32438800       0.02518000       0.34045000
    15  C          0.32438800       0.47482000       0.84045000
    16  C          0.67561200       0.97482000       0.65955000
    17  C          0.68871100       0.21091200       0.06037000
    18  C          0.31128900       0.71091200       0.43963000
    19  C          0.31128900       0.78908800       0.93963000
    20  C          0.68871100       0.28908800       0.56037000
    21  H          0.73361300       0.77011200       0.23891000
    22  H          0.26638700       0.27011200       0.26109000
    23  H          0.26638700       0.22988800       0.76109000
    24  H          0.73361300       0.72988800       0.73891000
    25  H          0.00991300       0.68441000       0.18988000
    26  H         -0.00991300       0.18441000       0.31012000
    27  H         -0.00991300       0.31559000       0.81012000
    28  H          0.00991300       0.81559000       0.68988000
    29  H          0.81871100       0.11791300       0.03509000
    30  H          0.18128900       0.61791300       0.46491000
    31  H          0.18128900       0.88208700       0.96491000
    32  H          0.81871100       0.38208700       0.53509000
    33  H          0.60061100       0.25461800      -0.00746000
    34  H          0.39938900       0.75461800       0.50746000
    35  H          0.39938900       0.74538200       0.00746000
    36  H          0.60061100       0.24538200       0.49254000
    37  H          0.54381100       0.14771000       0.09818000
    38  H          0.45618900       0.64771000       0.40182000
    39  H          0.45618900       0.85229000       0.90182000
    40  H          0.54381100       0.35229000       0.59818000
    41  H         -0.00028800       0.40558000       0.10424000
    42  H          0.00028800       0.90558000       0.39576000
    43  H          0.00028800       0.59442000       0.89576000
    44  H         -0.00028800       0.09442000       0.60424000
