data_MEUREA03
_symmetry_space_group_name_H-M    'P1'
_symmetry_Int_Tables_number       1
loop_
_symmetry_equiv_pos_site_id
_symmetry_equiv_pos_as_xyz
1 x,y,z
_cell_length_a                   4.66043
_cell_length_b                   7.40797
_cell_length_c                   10.45666
_cell_angle_alpha                90.0
_cell_angle_beta                 92.0074
_cell_angle_gamma                90.0
loop_
_atom_site_label
_atom_site_type_symbol
_atom_site_fract_x
_atom_site_fract_y
_atom_site_fract_z
     1  O          0.41158000       0.44945000       0.33713000
     2  O          0.58842000       0.94945000       0.16287000
     3  O          0.58842000       0.55055000       0.66287000
     4  O          0.41158000       0.05055000       0.83713000
     5  N          0.81411200       0.59415000       0.29884000
     6  N          0.18588800       0.09415000       0.20116000
     7  N          0.18588800       0.40585000       0.70116000
     8  N          0.81411200       0.90585000       0.79884000
     9  N          0.82389000       0.32915000       0.40663000
    10  N          0.17611000       0.82915000       0.09337000
    11  N          0.17611000       0.67085000       0.59337000
    12  N          0.82389000       0.17085000       0.90663000
    13  C          0.67879000       0.45854000       0.34752000
    14  C          0.32121000       0.95854000       0.15248000
    15  C          0.32121000       0.54146000       0.65248000
    16  C          0.67879000       0.04146000       0.84752000
    17  C          0.71411300       0.18495000       0.46705000
    18  C          0.28588700       0.68495000       0.03295000
    19  C          0.28588700       0.81505000       0.53295000
    20  C          0.71411300       0.31505000       0.96705000
    21  H          0.71971500       0.68096000       0.24925000
    22  H          0.28028500       0.18096000       0.25075000
    23  H          0.28028500       0.31904000       0.75075000
    24  H          0.71971500       0.81904000       0.74925000
    25  H          0.01551200       0.59807000       0.30504000
    26  H         -0.01551200       0.09807000       0.19496000
    27  H         -0.01551200       0.40193000       0.69496000
    28  H          0.01551200       0.90193000       0.80504000
    29  H          0.85271600       0.08656000       0.49466000
    30  H          0.14728400       0.58656000       0.00534000
    31  H          0.14728400       0.91344000       0.50534000
    32  H          0.85271600       0.41344000      -0.00534000
    33  H          0.63681400       0.21657000       0.55484000
    34  H          0.36318600       0.71657000       0.94516000
    35  H          0.36318600       0.78343000       0.44516000
    36  H          0.63681400       0.28343000       0.05484000
    37  H          0.54641400       0.11885000       0.41816000
    38  H          0.45358600       0.61885000       0.08184000
    39  H          0.45358600       0.88115000       0.58184000
    40  H          0.54641400       0.38115000       0.91816000
    41  H          0.02369000       0.34807000       0.40793000
    42  H         -0.02369000       0.84807000       0.09207000
    43  H         -0.02369000       0.65193000       0.59207000
    44  H          0.02369000       0.15193000       0.90793000
