data_MIFSUS02
_symmetry_space_group_name_H-M    'P1'
_symmetry_Int_Tables_number       1
loop_
_symmetry_equiv_pos_site_id
_symmetry_equiv_pos_as_xyz
1 x,y,z
_cell_length_a                   9.96238
_cell_length_b                   10.69038
_cell_length_c                   10.82499
_cell_angle_alpha                61.2403
_cell_angle_beta                 71.4753
_cell_angle_gamma                85.8613
loop_
_atom_site_label
_atom_site_type_symbol
_atom_site_fract_x
_atom_site_fract_y
_atom_site_fract_z
     1  F          0.75468160       0.25945150       0.13100160
     2  F          0.24531840       0.74054850       0.86899840
     3  F          0.60097190       0.26319150       0.96137170
     4  F          0.39902810       0.73680850       0.03862830
     5  F          0.56316160       0.51168140       0.74470150
     6  F          0.43683840       0.48831860       0.25529850
     7  F          0.86168160       0.50178160       0.08785150
     8  F          0.13831840       0.49821840       0.91214850
     9  F          0.91992190       0.02324160       0.68281180
    10  F          0.08007810       0.97675840       0.31718820
    11  O          0.91662000       0.78372000       0.92162000
    12  O          0.08338000       0.21628000       0.07838000
    13  O          0.75656180       0.02462150       0.50444180
    14  O          0.24343820       0.97537850       0.49555820
    15  O          0.53729150       0.79953170       0.70837170
    16  O          0.46270850       0.20046830       0.29162830
    17  H          0.52030000       0.86620000       0.61541800
    18  H          0.47970000       0.13380000       0.38458200
    19  O          0.54339190       0.88482000       0.42812000
    20  O          0.45660810       0.11518000       0.57188000
    21  O          0.92971150       0.65668160       0.54512160
    22  O          0.07028850       0.34331840       0.45487840
    23  N          0.83817160       0.70715160       0.47769160
    24  N          0.16182840       0.29284840       0.52230840
    25  N          0.65373180       0.81578180       0.42398190
    26  N          0.34626820       0.18421820       0.57601810
    27  C          0.98672000       0.71663000       0.24162000
    28  C          0.01328000       0.28337000       0.75838000
    29  H          0.02630000       0.81020000       0.21100000
    30  H          0.97370000       0.18980000       0.78900000
    31  H          0.98460000       0.71200000       0.15580000
    32  H          0.01540000       0.28800000       0.84420000
    33  H          0.04420000       0.64580000       0.28990000
    34  H          0.95580000       0.35420000       0.71010000
    35  C          0.83712000       0.68822000       0.34862000
    36  C          0.16288000       0.31178000       0.65138000
    37  C          0.72421190       0.76873190       0.52092000
    38  C          0.27578810       0.23126810       0.47908000
    39  C          0.68352000       0.78122000       0.66262000
    40  C          0.31648000       0.21878000       0.33738000
    41  C          0.70462000       0.64322000       0.79072000
    42  C          0.29538000       0.35678000       0.20928000
    43  C          0.64122000       0.51442000       0.82502000
    44  C          0.35878000       0.48558000       0.17498000
    45  C          0.65832000       0.38562000       0.93742000
    46  C          0.34168000       0.61438000       0.06258000
    47  C          0.73542000       0.38352000       0.02292000
    48  C          0.26458000       0.61648000       0.97708000
    49  C          0.78142000       0.64152000       0.87962000
    50  C          0.21858000       0.35848000       0.12038000
    51  C          0.79352000       0.51043000      -0.00378000
    52  C          0.20648000       0.48957000       0.00378000
    53  C          0.85262000       0.77782000       0.84502000
    54  C          0.14738000       0.22218000       0.15498000
    55  C          0.84422000       0.90552000       0.71312000
    56  C          0.15578000       0.09448000       0.28688000
    57  C          0.77092000       0.91252000       0.62662000
    58  C          0.22908000       0.08748000       0.37338000
    59  C          0.78693000       0.16982000       0.47153000
    60  C          0.21307000       0.83018000       0.52847000
    61  H          0.74210000       0.17890000       0.55910000
    62  H          0.25790000       0.82110000       0.44090000
    63  H          0.75090000       0.23530000       0.39330000
    64  H          0.24910000       0.76470000       0.60670000
    65  H          0.88790000       0.19140000       0.44020000
    66  H          0.11210000       0.80860000       0.55980000
    67  C          0.73022000       0.79722000       0.29022000
    68  C          0.26978000       0.20278000       0.70978000
    69  C          0.80293000       0.94452000       0.16513000
    70  C          0.19707000       0.05548000       0.83487000
    71  H          0.73260000       0.01110000       0.14520000
    72  H          0.26740000       0.98890000       0.85480000
    73  H          0.85330000       0.93810000       0.07690000
    74  H          0.14670000       0.06190000       0.92310000
    75  H          0.86870000       0.97680000       0.19450000
    76  H          0.13130000       0.02320000       0.80550000
    77  C          0.78153000       0.53132000       0.41753000
    78  C          0.21847000       0.46868000       0.58247000
    79  H          0.84210000       0.47000000       0.47010000
    80  H          0.15790000       0.53000000       0.52990000
    81  H          0.78080000       0.51140000       0.34000000
    82  H          0.21920000       0.48860000       0.66000000
    83  H          0.68660000       0.51400000       0.48540000
    84  H          0.31340000       0.48600000       0.51460000
    85  C          0.62273000       0.74553000       0.24773000
    86  C          0.37727000       0.25447000       0.75227000
    87  H          0.56590000       0.66180000       0.33330000
    88  H          0.43410000       0.33820000       0.66670000
    89  H          0.67180000       0.72240000       0.17050000
    90  H          0.32820000       0.27760000       0.82950000
    91  H          0.56230000       0.81980000       0.21260000
    92  H          0.43770000       0.18020000       0.78740000
