data_MIFSUS01
_symmetry_space_group_name_H-M    'P1'
_symmetry_Int_Tables_number       1
loop_
_symmetry_equiv_pos_site_id
_symmetry_equiv_pos_as_xyz
1 x,y,z
_cell_length_a                   10.6703
_cell_length_b                   7.7042
_cell_length_c                   23.3647
_cell_angle_alpha                90.0
_cell_angle_beta                 101.3719
_cell_angle_gamma                90.0
loop_
_atom_site_label
_atom_site_type_symbol
_atom_site_fract_x
_atom_site_fract_y
_atom_site_fract_z
     1  F          0.69047000       0.76244000       0.81775140
     2  F          0.80953000       0.26244000       0.68224860
     3  F          0.30953000       0.23756000       0.18224860
     4  F          0.19047000       0.73756000       0.31775140
     5  F          0.63547000       0.53774000       0.89501140
     6  F          0.86453000       0.03774000       0.60498860
     7  F          0.36453000       0.46226000       0.10498860
     8  F          0.13547000       0.96226000       0.39501140
     9  F          0.79947000       0.93415000       0.96270170
    10  F          0.70053000       0.43415000       0.53729830
    11  F          0.20053000       0.06585000       0.03729830
    12  F          0.29947000       0.56585000       0.46270170
    13  F          0.00263000       0.38824000       0.77171120
    14  F          0.49737000       0.88824000       0.72828880
    15  F         -0.00263000       0.61176000       0.22828880
    16  F          0.50263000       0.11176000       0.27171120
    17  F          0.87027000       0.68354000       0.75312130
    18  F          0.62973000       0.18354000       0.74687870
    19  F          0.12973000       0.31646000       0.24687870
    20  F          0.37027000       0.81646000       0.25312130
    21  O          0.92727000       0.04315000       0.79318160
    22  O          0.57273000       0.54315000       0.70681840
    23  O          0.07273000       0.95685000       0.20681840
    24  O          0.42727000       0.45685000       0.29318160
    25  H          0.00530000      -0.01260000       0.78320000
    26  H          0.49470000       0.48740000       0.71680000
    27  H         -0.00530000       0.01260000       0.21680000
    28  H          0.50530000       0.51260000       0.28320000
    29  O          0.17124000       0.97434000       0.79802000
    30  O          0.32876000       0.47434000       0.70198000
    31  O          0.82876000       0.02566000       0.20198000
    32  O          0.67124000       0.52566000       0.29802000
    33  O          0.09683000       0.35315000       0.93936160
    34  O          0.40317000       0.85315000       0.56063840
    35  O          0.90317000       0.64685000       0.06063840
    36  O          0.59683000       0.14685000       0.43936160
    37  O         -0.00244000       0.86365000       0.89718180
    38  O          0.50244000       0.36365000       0.60281820
    39  O          0.00244000       0.13635000       0.10281820
    40  O          0.49756000       0.63635000       0.39718180
    41  O          0.68356000       0.23506000       0.94894180
    42  O          0.81644000       0.73506000       0.55105820
    43  O          0.31644000       0.76494000       0.05105820
    44  O          0.18356000       0.26494000       0.44894180
    45  N          0.19104000       0.08966000       0.83867190
    46  N          0.30896000       0.58966000       0.66132810
    47  N          0.80896000       0.91034000       0.16132810
    48  N          0.69104000       0.41034000       0.33867190
    49  N          0.15674000       0.27295000       0.90493190
    50  N          0.34326000       0.77295000       0.59506810
    51  N          0.84326000       0.72705000       0.09506810
    52  N          0.65674000       0.22705000       0.40493190
    53  C          0.37466000      -0.01098000       0.90853000
    54  C          0.12534000       0.48902000       0.59147000
    55  C          0.62534000       0.01098000       0.09147000
    56  C          0.87466000       0.51098000       0.40853000
    57  H          0.31940000       0.97120000       0.93690000
    58  H          0.18060000       0.47120000       0.56310000
    59  H          0.68060000       0.02880000       0.06310000
    60  H          0.81940000       0.52880000       0.43690000
    61  H          0.46180000       0.01410000       0.92920000
    62  H          0.03820000       0.51410000       0.57080000
    63  H          0.53820000      -0.01410000       0.07080000
    64  H          0.96180000       0.48590000       0.42920000
    65  H          0.37470000       0.88400000       0.88490000
    66  H          0.12530000       0.38400000       0.61510000
    67  H          0.62530000       0.11600000       0.11510000
    68  H          0.87470000       0.61600000       0.38490000
    69  C          0.32414000       0.14217000       0.86872000
    70  C          0.17586000       0.64217000       0.63128000
    71  C          0.67586000       0.85783000       0.13128000
    72  C          0.82414000       0.35783000       0.36872000
    73  C          0.10234000       0.16176000       0.86382000
    74  C          0.39766000       0.66176000       0.63618000
    75  C          0.89766000       0.83824000       0.13618000
    76  C          0.60234000       0.33824000       0.36382000
    77  C          0.95776000       0.12676000       0.84792000
    78  C          0.54224000       0.62676000       0.65208000
    79  C          0.04224000       0.87324000       0.15208000
    80  C          0.45776000       0.37324000       0.34792000
    81  C          0.88576000       0.29806000       0.84292000
    82  C          0.61424000       0.79806000       0.65708000
    83  C          0.11424000       0.70194000       0.15708000
    84  C          0.38576000       0.20194000       0.34292000
    85  C          0.79116000       0.33497000       0.87512000
    86  C          0.70884000       0.83497000       0.62488000
    87  C          0.20884000       0.66503000       0.12488000
    88  C          0.29116000       0.16503000       0.37512000
    89  C          0.72696000       0.49327000       0.86492000
    90  C          0.77304000      -0.00673000       0.63508000
    91  C          0.27304000       0.50673000       0.13508000
    92  C          0.22696000       0.00673000       0.36492000
    93  C          0.75205000       0.60937000       0.82522000
    94  C          0.74795000       0.10937000       0.67478000
    95  C          0.24795000       0.39063000       0.17478000
    96  C          0.25205000       0.89063000       0.32522000
    97  C          0.40626000       0.17209000       0.82393000
    98  C          0.09374000       0.67209000       0.67607000
    99  C          0.59374000       0.82791000       0.17607000
   100  C          0.90626000       0.32791000       0.32393000
   101  H          0.41510000       0.06300000       0.80340000
   102  H          0.08490000       0.56300000       0.69660000
   103  H          0.58490000       0.93700000       0.19660000
   104  H          0.91510000       0.43700000       0.30340000
   105  H          0.49080000       0.21290000       0.84340000
   106  H          0.00920000       0.71290000       0.65660000
   107  H          0.50920000       0.78710000       0.15660000
   108  H         -0.00920000       0.28710000       0.34340000
   109  H          0.36590000       0.25950000       0.79570000
   110  H          0.13410000       0.75950000       0.70430000
   111  H          0.63410000       0.74050000       0.20430000
   112  H          0.86590000       0.24050000       0.29570000
   113  C          0.29505000       0.30447000       0.90252000
   114  C          0.20495000       0.80447000       0.59748000
   115  C          0.70495000       0.69553000       0.09748000
   116  C          0.79505000       0.19553000       0.40252000
   117  C          0.29436000       0.47318000       0.86773000
   118  C          0.20564000       0.97318000       0.63227000
   119  C          0.70564000       0.52682000       0.13227000
   120  C          0.79436000       0.02682000       0.36773000
   121  H          0.24320000       0.45690000       0.82840000
   122  H          0.25680000       0.95690000       0.67160000
   123  H          0.75680000       0.54310000       0.17160000
   124  H          0.74320000       0.04310000       0.32840000
   125  H          0.38210000       0.50370000       0.86500000
   126  H          0.11790000       0.00370000       0.63500000
   127  H          0.61790000       0.49630000       0.13500000
   128  H          0.88210000      -0.00370000       0.36500000
   129  H          0.25720000       0.56660000       0.88750000
   130  H          0.24280000       0.06660000       0.61250000
   131  H          0.74280000       0.43340000       0.11250000
   132  H          0.75720000       0.93340000       0.38750000
   133  C          0.37226000       0.32539000       0.96363000
   134  C          0.12774000       0.82539000       0.53637000
   135  C          0.62774000       0.67461000       0.03637000
   136  C          0.87226000       0.17461000       0.46363000
   137  H          0.34140000       0.42670000       0.98210000
   138  H          0.15860000       0.92670000       0.51790000
   139  H          0.65860000       0.57330000       0.01790000
   140  H          0.84140000       0.07330000       0.48210000
   141  H          0.46250000       0.34160000       0.96190000
   142  H          0.03750000       0.84160000       0.53810000
   143  H          0.53750000       0.65840000       0.03810000
   144  H          0.96250000       0.15840000       0.46190000
   145  H          0.36280000       0.22120000       0.98650000
   146  H          0.13720000       0.72120000       0.51350000
   147  H          0.63720000       0.77880000       0.01350000
   148  H          0.86280000       0.27880000       0.48650000
   149  C          0.92555000       0.00586000       0.89412000
   150  C          0.57445000       0.50586000       0.60588000
   151  C          0.07445000      -0.00586000       0.10588000
   152  C          0.42555000       0.49414000       0.39412000
   153  C          0.00366000       0.74022000       0.94423000
   154  C          0.49634000       0.24022000       0.55577000
   155  C         -0.00366000       0.25978000       0.05577000
   156  C          0.50366000       0.75978000       0.44423000
   157  H          0.01980000       0.80180000       0.98160000
   158  H          0.48020000       0.30180000       0.51840000
   159  H          0.98020000       0.19820000       0.01840000
   160  H          0.51980000       0.69820000       0.48160000
   161  H          0.07290000       0.65740000       0.94330000
   162  H          0.42710000       0.15740000       0.55670000
   163  H          0.92710000       0.34260000       0.05670000
   164  H          0.57290000       0.84260000       0.44330000
   165  H          0.92220000       0.67780000       0.93950000
   166  H          0.57780000       0.17780000       0.56050000
   167  H          0.07780000       0.32220000       0.06050000
   168  H          0.42220000       0.82220000       0.43950000
   169  C          0.83405000       0.04747000       0.92362000
   170  C          0.66595000       0.54747000       0.57638000
   171  C          0.16595000       0.95253000       0.07638000
   172  C          0.33405000       0.45253000       0.42362000
   173  C          0.76295000       0.20887000       0.91862000
   174  C          0.73705000       0.70887000       0.58138000
   175  C          0.23705000       0.79113000       0.08138000
   176  C          0.26295000       0.29113000       0.41862000
   177  C          0.91006000       0.41786000       0.80312000
   178  C          0.58994000       0.91786000       0.69688000
   179  C          0.08994000       0.58214000       0.19688000
   180  C          0.41006000       0.08214000       0.30312000
   181  C          0.84435000       0.57207000       0.79312000
   182  C          0.65565000       0.07207000       0.70688000
   183  C          0.15565000       0.42793000       0.20688000
   184  C          0.34435000       0.92793000       0.29312000
