data_MIFSUS
_symmetry_space_group_name_H-M    'P1'
_symmetry_Int_Tables_number       1
loop_
_symmetry_equiv_pos_site_id
_symmetry_equiv_pos_as_xyz
1 x,y,z
_cell_length_a                   10.84221
_cell_length_b                   15.568013
_cell_length_c                   11.66211
_cell_angle_alpha                90.0
_cell_angle_beta                 113.1883
_cell_angle_gamma                90.0
loop_
_atom_site_label
_atom_site_type_symbol
_atom_site_fract_x
_atom_site_fract_y
_atom_site_fract_z
     1  F          0.00873000       0.13442000       0.64027000
     2  F         -0.00873000       0.63442000       0.85973000
     3  F         -0.00873000       0.86558000       0.35973000
     4  F          0.00873000       0.36558000       0.14027000
     5  F          0.24793000       0.05541190       0.75797000
     6  F          0.75207000       0.55541190       0.74203000
     7  F          0.75207000       0.94458810       0.24203000
     8  F          0.24793000       0.44458810       0.25797000
     9  F          0.34603000       0.02908180       0.00533000
    10  F          0.65397000       0.52908180       0.49467000
    11  F          0.65397000       0.97091820      -0.00533000
    12  F          0.34603000       0.47091820       0.50533000
    13  F          0.90027000       0.13382000       0.20763000
    14  F          0.09973000       0.63382000       0.29237000
    15  F          0.09973000       0.86618000       0.79237000
    16  F          0.90027000       0.36618000       0.70763000
    17  F          0.86787000       0.18822180       0.76867000
    18  F          0.13213000       0.68822180       0.73133000
    19  F          0.13213000       0.81177820       0.23133000
    20  F          0.86787000       0.31177820       0.26867000
    21  O          0.22373000       0.97436820       0.16153000
    22  O          0.77627000       0.47436820       0.33847000
    23  O          0.77627000       0.02563180       0.83847000
    24  O          0.22373000       0.52563180       0.66153000
    25  H          0.32021600       0.96370000       0.21340000
    26  H          0.67978400       0.46370000       0.28660000
    27  H          0.67978400       0.03630000       0.78660000
    28  H          0.32021600       0.53630000       0.71340000
    29  O          0.25003000       0.24822000       0.19194000
    30  O          0.74997000       0.74822000       0.30806000
    31  O          0.74997000       0.75178000       0.80806000
    32  O          0.25003000       0.25178000       0.69194000
    33  O          0.47723000      -0.00772000       0.31084000
    34  O          0.52277000       0.49228000       0.18916000
    35  O          0.52277000       0.00772000       0.68916000
    36  O          0.47723000       0.50772000       0.81084000
    37  O          0.16104000       0.05962000       0.33773000
    38  O          0.83896000       0.55962000       0.16227000
    39  O          0.83896000       0.94038000       0.66227000
    40  O          0.16104000       0.44038000       0.83773000
    41  O          0.85097000       0.20542000      -0.01133000
    42  O          0.14903000       0.70542000       0.51133000
    43  O          0.14903000       0.79458000       0.01133000
    44  O          0.85097000       0.29458000       0.48867000
    45  N          0.45184000       0.07322000       0.30033000
    46  N          0.54816000       0.57322000       0.19967000
    47  N          0.54816000       0.92678000       0.69967000
    48  N          0.45184000       0.42678000       0.80033000
    49  N          0.34534000       0.19542000       0.24494000
    50  N          0.65466000       0.69542000       0.25506000
    51  N          0.65466000       0.80458000       0.75506000
    52  N          0.34534000       0.30458000       0.74494000
    53  C          0.65176000       0.11294000       0.48795000
    54  C          0.34824000       0.61294000       0.01205000
    55  C          0.34824000       0.88706000       0.51205000
    56  C          0.65176000       0.38706000      -0.01205000
    57  H          0.69860000       0.05990000       0.48400000
    58  H          0.30140000       0.55990000       0.01600000
    59  H          0.30140000       0.94010000       0.51600000
    60  H          0.69860000       0.44010000       0.98400000
    61  H          0.59820000       0.10290000       0.53750000
    62  H          0.40180000       0.60290000       0.96250000
    63  H          0.40180000       0.89710000       0.46250000
    64  H          0.59820000       0.39710000       0.03750000
    65  H          0.71750000       0.15830000       0.52680000
    66  H          0.28250000       0.65830000       0.97320000
    67  H          0.28250000       0.84170000       0.47320000
    68  H          0.71750000       0.34170000       0.02680000
    69  C          0.56104000       0.13983000       0.35814000
    70  C          0.43896000       0.63983000       0.14186000
    71  C          0.43896000       0.86017000       0.64186000
    72  C          0.56104000       0.36017000       0.85814000
    73  C          0.33554000       0.11013000       0.23124000
    74  C          0.66446000       0.61013000       0.26876000
    75  C          0.66446000       0.88987000       0.76876000
    76  C          0.33554000       0.38987000       0.73124000
    77  C          0.20534000       0.06443000       0.15674000
    78  C          0.79466000       0.56443000       0.34326000
    79  C          0.79466000       0.93557000       0.84326000
    80  C          0.20534000       0.43557000       0.65674000
    81  C          0.15314000       0.09073000       0.01934000
    82  C          0.84686000       0.59073000       0.48066000
    83  C          0.84686000       0.90927000       0.98066000
    84  C          0.15314000       0.40927000       0.51934000
    85  C          0.22614000       0.06723000       0.95046000
    86  C          0.77386000       0.56723000       0.54954000
    87  C          0.77386000       0.93277000       0.04954000
    88  C          0.22614000       0.43277000       0.45046000
    89  C          0.17835000       0.08193000       0.82356000
    90  C          0.82165000       0.58193000       0.67644000
    91  C          0.82165000       0.91807000       0.17644000
    92  C          0.17835000       0.41807000       0.32356000
    93  C          0.05685000       0.12243000       0.76356000
    94  C          0.94315000       0.62243000       0.73644000
    95  C          0.94315000       0.87757000       0.23644000
    96  C          0.05685000       0.37757000       0.26356000
    97  C          0.47465000       0.22063000       0.34935000
    98  C          0.52535000       0.72063000       0.15065000
    99  C          0.52535000       0.77937000       0.65065000
   100  C          0.47465000       0.27937000       0.84935000
   101  C          0.43678000       0.22976000       0.46387000
   102  C          0.56322000       0.72976000       0.03613000
   103  C          0.56322000       0.77024000       0.53613000
   104  C          0.43678000       0.27024000       0.96387000
   105  H          0.51400000       0.25160000       0.53500000
   106  H          0.48600000       0.75160000       0.96500000
   107  H          0.48600000       0.74840000       0.46500000
   108  H          0.51400000       0.24840000       0.03500000
   109  H          0.41070000       0.17350000       0.48480000
   110  H          0.58930000       0.67350000       0.01520000
   111  H          0.58930000       0.82650000       0.51520000
   112  H          0.41070000       0.32650000       0.98480000
   113  H          0.36140000       0.26980000       0.44400000
   114  H          0.63860000       0.76980000       0.05600000
   115  H          0.63860000       0.73020000       0.55600000
   116  H          0.36140000       0.23020000       0.94400000
   117  C          0.63806000       0.14264000       0.27496000
   118  C          0.36194000       0.64264000       0.22504000
   119  C          0.36194000       0.85736000       0.72504000
   120  C          0.63806000       0.35736000       0.77496000
   121  H          0.71150000       0.18410000       0.30820000
   122  H          0.28850000       0.68410000       0.19180000
   123  H          0.28850000       0.81590000       0.69180000
   124  H          0.71150000       0.31590000       0.80820000
   125  H          0.57770000       0.15990000       0.19060000
   126  H          0.42230000       0.65990000       0.30940000
   127  H          0.42230000       0.84010000       0.80940000
   128  H          0.57770000       0.34010000       0.69060000
   129  H          0.67490000       0.08550000       0.27190000
   130  H          0.32510000       0.58550000       0.22810000
   131  H          0.32510000       0.91450000       0.72810000
   132  H          0.67490000       0.41450000       0.77190000
   133  C          0.52636000       0.30323000       0.32187000
   134  C          0.47364000       0.80323000       0.17813000
   135  C          0.47364000       0.69677000       0.67813000
   136  C          0.52636000       0.19677000       0.82187000
   137  H          0.53580000       0.29860000       0.24180000
   138  H          0.46420000       0.79860000       0.25820000
   139  H          0.46420000       0.70140000       0.75820000
   140  H          0.53580000       0.20140000       0.74180000
   141  H          0.61390000       0.31580000       0.38810000
   142  H          0.38610000       0.81580000       0.11190000
   143  H          0.38610000       0.68420000       0.61190000
   144  H          0.61390000       0.18420000       0.88810000
   145  H          0.46330000       0.34950000       0.31720000
   146  H          0.53670000       0.84950000       0.18280000
   147  H          0.53670000       0.65050000       0.68280000
   148  H          0.46330000       0.15050000       0.81720000
   149  C          0.10905000       0.08563000       0.21834000
   150  C          0.89095000       0.58563000       0.28166000
   151  C          0.89095000       0.91437000       0.78166000
   152  C          0.10905000       0.41437000       0.71834000
   153  C          0.11448000       0.09764000       0.42676000
   154  C          0.88552000       0.59764000       0.07324000
   155  C          0.88552000       0.90236000       0.57324000
   156  C          0.11448000       0.40236000       0.92676000
   157  H          0.09720000       0.15900000       0.40850000
   158  H          0.90280000       0.65900000       0.09150000
   159  H          0.90280000       0.84100000       0.59150000
   160  H          0.09720000       0.34100000       0.90850000
   161  H          0.18310000       0.09050000       0.51120000
   162  H          0.81690000       0.59050000      -0.01120000
   163  H          0.81690000       0.90950000       0.48880000
   164  H          0.18310000       0.40950000       0.01120000
   165  H          0.03140000       0.06920000       0.42060000
   166  H          0.96860000       0.56920000       0.07940000
   167  H          0.96860000       0.93080000       0.57940000
   168  H          0.03140000       0.43080000       0.92060000
   169  C         -0.01005000       0.12243000       0.15515000
   170  C          0.01005000       0.62243000       0.34485000
   171  C          0.01005000       0.87757000       0.84485000
   172  C         -0.01005000       0.37757000       0.65515000
   173  C          0.94806000       0.15823000       0.03025000
   174  C          0.05194000       0.65823000       0.46975000
   175  C          0.05194000       0.84177000       0.96975000
   176  C          0.94806000       0.34177000       0.53025000
   177  C          0.03044000       0.13353000       0.95916000
   178  C          0.96956000       0.63353000       0.54084000
   179  C          0.96956000       0.86647000       0.04084000
   180  C          0.03044000       0.36647000       0.45916000
   181  C         -0.01454000       0.14923000       0.83136000
   182  C          0.01454000       0.64923000       0.66864000
   183  C          0.01454000       0.85077000       0.16864000
   184  C         -0.01454000       0.35077000       0.33136000
