data_MILHOF
_symmetry_space_group_name_H-M    'P1'
_symmetry_Int_Tables_number       1
loop_
_symmetry_equiv_pos_site_id
_symmetry_equiv_pos_as_xyz
1 x,y,z
_cell_length_a                   9.045715
_cell_length_b                   18.8823
_cell_length_c                   16.0573
_cell_angle_alpha                90.0
_cell_angle_beta                 105.1443
_cell_angle_gamma                90.0
loop_
_atom_site_label
_atom_site_type_symbol
_atom_site_fract_x
_atom_site_fract_y
_atom_site_fract_z
     1  C          0.18942000       0.07216120       0.90817870
     2  C          0.31058000       0.57216120       0.59182130
     3  C          0.81058000       0.92783880       0.09182130
     4  C          0.68942000       0.42783880       0.40817870
     5  C          0.05773000       0.11129160       0.88686830
     6  C          0.44227000       0.61129160       0.61313170
     7  C          0.94227000       0.88870840       0.11313170
     8  C          0.55773000       0.38870840       0.38686830
     9  H          0.00500000       0.12120000       0.92810000
    10  H          0.49500000       0.62120000       0.57190000
    11  H         -0.00500000       0.87880000       0.07190000
    12  H          0.50500000       0.37880000       0.42810000
    13  C          0.00364000       0.13604170       0.80327810
    14  C          0.49636000       0.63604170       0.69672190
    15  C         -0.00364000       0.86395830       0.19672190
    16  C          0.50364000       0.36395830       0.30327810
    17  H          0.91510000       0.16340000       0.78930000
    18  H          0.58490000       0.66340000       0.71070000
    19  H          0.08490000       0.83660000       0.21070000
    20  H          0.41510000       0.33660000       0.28930000
    21  C          0.07703000       0.12130130       0.74023840
    22  C          0.42297000       0.62130130       0.75976160
    23  C          0.92297000       0.87869870       0.25976160
    24  C          0.57703000       0.37869870       0.24023840
    25  C          0.01644000       0.14818190       0.64907810
    26  C          0.48356000       0.64818190       0.85092190
    27  C         -0.01644000       0.85181810       0.35092190
    28  C          0.51644000       0.35181810       0.14907810
    29  H          0.92560000       0.17580000       0.64520000
    30  H          0.57440000       0.67580000       0.85480000
    31  H          0.07440000       0.82420000       0.35480000
    32  H          0.42560000       0.32420000       0.14520000
    33  H         -0.00770000       0.10870000       0.61020000
    34  H          0.50770000       0.60870000       0.88980000
    35  H          0.00770000       0.89130000       0.38980000
    36  H          0.49230000       0.39130000       0.11020000
    37  H          0.09270000       0.17710000       0.63400000
    38  H          0.40730000       0.67710000       0.86600000
    39  H          0.90730000       0.82290000       0.36600000
    40  H          0.59270000       0.32290000       0.13400000
    41  C          0.20633000       0.08028150       0.76318840
    42  C          0.29367000       0.58028150       0.73681160
    43  C          0.79367000       0.91971850       0.23681160
    44  C          0.70633000       0.41971850       0.26318840
    45  H          0.25690000       0.06860000       0.72160000
    46  H          0.24310000       0.56860000       0.77840000
    47  H          0.74310000       0.93140000       0.27840000
    48  H          0.75690000       0.43140000       0.22160000
    49  C          0.26293000       0.05593140       0.84581850
    50  C          0.23707000       0.55593140       0.65418150
    51  C          0.73707000       0.94406860       0.15418150
    52  C          0.76293000       0.44406860       0.34581850
    53  H          0.35120000       0.02840000       0.85970000
    54  H          0.14880000       0.52840000       0.64030000
    55  H          0.64880000       0.97160000       0.14030000
    56  H          0.85120000       0.47160000       0.35970000
    57  S          0.26882600       0.04502300       0.01506400
    58  S          0.23117400       0.54502300       0.48493600
    59  S          0.73117400       0.95497700       0.98493600
    60  S          0.76882600       0.45497700       0.51506400
    61  O          0.31476180       0.97226200       0.01524100
    62  O          0.18523820       0.47226200       0.48475900
    63  O          0.68523820       0.02773800       0.98475900
    64  O          0.81476180       0.52773800       0.51524100
    65  O          0.16693190       0.06563900       0.06488100
    66  O          0.33306810       0.56563900       0.43511900
    67  O          0.83306810       0.93436100       0.93511900
    68  O          0.66693190       0.43436100       0.56488100
    69  N          0.42632000       0.08853100       0.05085130
    70  N          0.07368000       0.58853100       0.44914870
    71  N          0.57368000       0.91146900       0.94914870
    72  N          0.92632000       0.41146900       0.55085130
    73  C          0.42403000       0.16706120       0.05158150
    74  C          0.07597000       0.66706120       0.44841850
    75  C          0.57597000       0.83293880       0.94841850
    76  C          0.92403000       0.33293880       0.55158150
    77  H          0.44590000       0.18390000       0.11060000
    78  H          0.05410000       0.68390000       0.38940000
    79  H          0.55410000       0.81610000       0.88940000
    80  H          0.94590000       0.31610000       0.61060000
    81  H          0.32300000       0.18380000       0.02110000
    82  H          0.17700000       0.68380000       0.47890000
    83  H          0.67700000       0.81620000       0.97890000
    84  H          0.82300000       0.31620000       0.52110000
    85  C          0.54123000       0.19596110       0.00918140
    86  C          0.95877000       0.69596110       0.49081860
    87  C          0.45877000       0.80403890       0.99081860
    88  C          0.04123000       0.30403890       0.50918140
    89  C          0.49584000       0.22569140       0.92750830
    90  C          0.00416000       0.72569140       0.57249170
    91  C          0.50416000       0.77430860       0.07249170
    92  C         -0.00416000       0.27430860       0.42750830
    93  H          0.39210000       0.22910000       0.89970000
    94  H          0.10790000       0.72910000       0.60030000
    95  H          0.60790000       0.77090000       0.10030000
    96  H          0.89210000       0.27090000       0.39970000
    97  C          0.60215000       0.25006160       0.88728000
    98  C          0.89785000       0.75006160       0.61272000
    99  C          0.39785000       0.74993840       0.11272000
   100  C          0.10215000       0.24993840       0.38728000
   101  H          0.56980000       0.27070000       0.83300000
   102  H          0.93020000       0.77070000       0.66700000
   103  H          0.43020000       0.72930000       0.16700000
   104  H          0.06980000       0.22930000       0.33300000
   105  C          0.75514000       0.24433150       0.92618000
   106  C          0.74486000       0.74433150       0.57382000
   107  C          0.24486000       0.75566850       0.07382000
   108  C          0.25514000       0.25566850       0.42618000
   109  H          0.82660000       0.26030000       0.89810000
   110  H          0.67340000       0.76030000       0.60190000
   111  H          0.17340000       0.73970000       0.10190000
   112  H          0.32660000       0.23970000       0.39810000
   113  C          0.80323000       0.21469130       0.00741170
   114  C          0.69677000       0.71469130       0.49258830
   115  C          0.19677000       0.78530870      -0.00741170
   116  C          0.30323000       0.28530870       0.50741170
   117  H          0.90740000       0.21120000       0.03410000
   118  H          0.59260000       0.71120000       0.46590000
   119  H          0.09260000       0.78880000       0.96590000
   120  H          0.40740000       0.28880000       0.53410000
   121  C          0.69743000       0.19004110       0.04951140
   122  C          0.80257000       0.69004110       0.45048860
   123  C          0.30257000       0.80995890       0.95048860
   124  C          0.19743000       0.30995890       0.54951140
   125  N          0.74122000       0.16270100       0.13418110
   126  N          0.75878000       0.66270100       0.36581890
   127  N          0.25878000       0.83729900       0.86581890
   128  N          0.24122000       0.33729900       0.63418110
   129  C          0.86413000       0.12643120       0.16011140
   130  C          0.63587000       0.62643120       0.33988860
   131  C          0.13587000       0.87356880       0.83988860
   132  C          0.36413000       0.37356880       0.66011140
   133  H          0.91880000       0.11540000       0.12020000
   134  H          0.58120000       0.61540000       0.37980000
   135  H          0.08120000       0.88460000       0.87980000
   136  H          0.41880000       0.38460000       0.62020000
   137  C          0.92322000       0.10156120       0.24790140
   138  C          0.57678000       0.60156120       0.25209860
   139  C          0.07678000       0.89843880       0.75209860
   140  C          0.42322000       0.39843880       0.74790140
   141  C          0.06393000       0.06658140       0.26877170
   142  C          0.43607000       0.56658140       0.23122830
   143  C          0.93607000       0.93341860       0.73122830
   144  C          0.56393000       0.43341860       0.76877170
   145  H          0.11420000       0.05880000       0.22590000
   146  H          0.38580000       0.55880000       0.27410000
   147  H          0.88580000       0.94120000       0.77410000
   148  H          0.61420000       0.44120000       0.72590000
   149  C          0.12993000       0.04331160       0.35119180
   150  C          0.37007000       0.54331160       0.14880820
   151  C          0.87007000       0.95668840       0.64880820
   152  C          0.62993000       0.45668840       0.85119180
   153  H          0.22370000       0.02000000       0.36380000
   154  H          0.27630000       0.52000000       0.13620000
   155  H          0.77630000       0.98000000       0.63620000
   156  H          0.72370000       0.48000000       0.86380000
   157  C          0.05683000       0.05473150       0.41440170
   158  C          0.44317000       0.55473150       0.08559830
   159  C          0.94317000       0.94526850       0.58559830
   160  C          0.55683000       0.44526850       0.91440170
   161  H          0.10170000       0.03920000       0.47030000
   162  H          0.39830000       0.53920000       0.02970000
   163  H          0.89830000       0.96080000       0.52970000
   164  H          0.60170000       0.46080000       0.97030000
   165  C          0.91743000       0.08898140       0.39658150
   166  C          0.58257000       0.58898140       0.10341850
   167  C          0.08257000       0.91101860       0.60341850
   168  C          0.41743000       0.41101860       0.89658150
   169  H          0.86920000       0.09630000       0.44040000
   170  H          0.63080000       0.59630000       0.05960000
   171  H          0.13080000       0.90370000       0.55960000
   172  H          0.36920000       0.40370000       0.94040000
   173  C          0.84912000       0.11245120       0.31430140
   174  C          0.65088000       0.61245120       0.18569860
   175  C          0.15088000       0.88754880       0.68569860
   176  C          0.34912000       0.38754880       0.81430140
   177  N          0.70812000       0.14843120       0.29315140
   178  N          0.79188000       0.64843120       0.20684860
   179  N          0.29188000       0.85156880       0.70684860
   180  N          0.20812000       0.35156880       0.79315140
   181  S          0.57115800       0.13941400       0.34070400
   182  S          0.92884200       0.63941400       0.15929600
   183  S          0.42884200       0.86058600       0.65929600
   184  S          0.07115800       0.36058600       0.84070400
   185  O          0.62502000       0.15946110       0.42870110
   186  O          0.87498000       0.65946110       0.07129890
   187  O          0.37498000       0.84053890       0.57129890
   188  O          0.12502000       0.34053890       0.92870110
   189  O          0.44382000       0.17564100       0.28561110
   190  O          0.05618000       0.67564100       0.21438890
   191  O          0.55618000       0.82435900       0.71438890
   192  O          0.94382000       0.32435900       0.78561110
   193  C          0.53033000       0.04856150       0.33785150
   194  C          0.96967000       0.54856150       0.16214850
   195  C          0.46967000       0.95143850       0.66214850
   196  C          0.03033000       0.45143850       0.83785150
   197  C          0.57883000       0.00652180       0.41162160
   198  C          0.92117000       0.50652180       0.08837840
   199  C          0.42117000      -0.00652180       0.58837840
   200  C          0.07883000       0.49347820       0.91162160
   201  H          0.63430000       0.02660000       0.46320000
   202  H          0.86570000       0.52660000       0.03680000
   203  H          0.36570000       0.97340000       0.53680000
   204  H          0.13430000       0.47340000       0.96320000
   205  C          0.54493000       0.93613820       0.40806180
   206  C          0.95507000       0.43613820       0.09193820
   207  C          0.45507000       0.06386180       0.59193820
   208  C          0.04493000       0.56386180       0.90806180
   209  H          0.57780000       0.90880000       0.45760000
   210  H          0.92220000       0.40880000       0.04240000
   211  H          0.42220000       0.09120000       0.54240000
   212  H          0.07780000       0.59120000       0.95760000
   213  C          0.46273000       0.90422840       0.33252180
   214  C          0.03727000       0.40422840       0.16747820
   215  C          0.53727000       0.09577160       0.66747820
   216  C          0.96273000       0.59577160       0.83252180
   217  C          0.42875000       0.82668810       0.33032000
   218  C          0.07125000       0.32668810       0.16968000
   219  C          0.57125000       0.17331190       0.66968000
   220  C          0.92875000       0.67331190       0.83032000
   221  H          0.51860000       0.80060000       0.32800000
   222  H         -0.01860000       0.30060000       0.17200000
   223  H          0.48140000       0.19940000       0.67200000
   224  H          0.01860000       0.69940000       0.82800000
   225  H          0.34710000       0.81600000       0.28030000
   226  H          0.15290000       0.31600000       0.21970000
   227  H          0.65290000       0.18400000       0.71970000
   228  H          0.84710000       0.68400000       0.78030000
   229  H          0.39870000       0.81370000       0.38130000
   230  H          0.10130000       0.31370000       0.11870000
   231  H          0.60130000       0.18630000       0.61870000
   232  H          0.89870000       0.68630000       0.88130000
   233  C          0.41563000       0.94652830       0.25908170
   234  C          0.08437000       0.44652830       0.24091830
   235  C          0.58437000       0.05347170       0.74091830
   236  C          0.91563000       0.55347170       0.75908170
   237  H          0.36020000       0.92630000       0.20750000
   238  H          0.13980000       0.42630000       0.29250000
   239  H          0.63980000       0.07370000       0.79250000
   240  H          0.86020000       0.57370000       0.70750000
   241  C          0.44973000       0.01719160       0.26173160
   242  C          0.05027000       0.51719160       0.23826840
   243  C          0.55027000       0.98280840       0.73826840
   244  C          0.94973000       0.48280840       0.76173160
   245  H          0.41830000       0.04440000       0.21190000
   246  H          0.08170000       0.54440000       0.28810000
   247  H          0.58170000       0.95560000       0.78810000
   248  H          0.91830000       0.45560000       0.71190000
   249  H          0.49130000       0.07271200       0.03081500
   250  H          0.00870000       0.57271200       0.46918500
   251  H          0.50870000       0.92728800       0.96918500
   252  H         -0.00870000       0.42728800       0.53081500
   253  H          0.67630000       0.15961300       0.24041600
   254  H          0.82370000       0.65961300       0.25958400
   255  H          0.32370000       0.84038700       0.75958400
   256  H          0.17630000       0.34038700       0.74041600
