data_MILHOF01
_symmetry_space_group_name_H-M    'P1'
_symmetry_Int_Tables_number       1
loop_
_symmetry_equiv_pos_site_id
_symmetry_equiv_pos_as_xyz
1 x,y,z
_cell_length_a                   8.7975
_cell_length_b                   10.7884
_cell_length_c                   14.7138
_cell_angle_alpha                100.535
_cell_angle_beta                 101.705
_cell_angle_gamma                100.236
loop_
_atom_site_label
_atom_site_type_symbol
_atom_site_fract_x
_atom_site_fract_y
_atom_site_fract_z
     1  C          0.76213000       0.83768000       0.66153840
     2  C          0.23787000       0.16232000       0.33846160
     3  C          0.85664000       0.92188000       0.62378000
     4  C          0.14336000       0.07812000       0.37622000
     5  H          0.84150000       0.00540000       0.62570000
     6  H          0.15850000      -0.00540000       0.37430000
     7  C          0.97233000       0.88137000       0.58378000
     8  C          0.02767000       0.11863000       0.41622000
     9  H          0.03600000       0.93880000       0.55940000
    10  H          0.96400000       0.06120000       0.44060000
    11  C         -0.00327000       0.75738000       0.57855840
    12  C          0.00327000       0.24262000       0.42144160
    13  C          0.12694000       0.71636000       0.53548000
    14  C          0.87306000       0.28364000       0.46452000
    15  H          0.10490000       0.71960000       0.46940000
    16  H          0.89510000       0.28040000       0.53060000
    17  H          0.13120000       0.62970000       0.54100000
    18  H          0.86880000       0.37030000       0.45900000
    19  H          0.22730000       0.77370000       0.56860000
    20  H          0.77270000       0.22630000       0.43140000
    21  C          0.90093000       0.67518000       0.61520820
    22  C          0.09907000       0.32482000       0.38479180
    23  H          0.91430000       0.59100000       0.61180000
    24  H          0.08570000       0.40900000       0.38820000
    25  C          0.78533000       0.71408000       0.65698830
    26  C          0.21467000       0.28592000       0.34301170
    27  H          0.72300000       0.65680000       0.68210000
    28  H          0.27700000       0.34320000       0.31790000
    29  S          0.61687700       0.89003300       0.71650500
    30  S          0.38312300       0.10996700       0.28349500
    31  O          0.55403000       0.78798000       0.75671820
    32  O          0.44597000       0.21202000       0.24328180
    33  O          0.51253000       0.93847000       0.65085840
    34  O          0.48747000       0.06153000       0.34914160
    35  N          0.70762000       0.01392000       0.80220860
    36  N          0.29238000      -0.01392000       0.19779140
    37  C          0.83542000      -0.00122000       0.87783850
    38  C          0.16458000       0.00122000       0.12216150
    39  H          0.93490000       0.05370000       0.87680000
    40  H          0.06510000       0.94630000       0.12320000
    41  H          0.84680000       0.90990000       0.86510000
    42  H          0.15320000       0.09010000       0.13490000
    43  C          0.80512000       0.03304190       0.97572850
    44  C          0.19488000       0.96695810       0.02427150
    45  C          0.70443000       0.94318000       0.00554190
    46  C          0.29557000       0.05682000      -0.00554190
    47  H          0.65540000       0.86350000       0.96430000
    48  H          0.34460000       0.13650000       0.03570000
    49  C          0.67523000       0.96917000       0.09492000
    50  C          0.32477000       0.03083000       0.90508000
    51  H          0.60850000       0.90690000       0.11370000
    52  H          0.39150000       0.09310000       0.88630000
    53  C          0.74473000       0.08712000       0.15634180
    54  C          0.25527000       0.91288000       0.84365820
    55  H          0.72360000       0.10520000       0.21620000
    56  H          0.27640000       0.89480000       0.78380000
    57  C          0.84553000       0.17852000       0.12915160
    58  C          0.15447000       0.82148000       0.87084840
    59  H          0.89250000       0.25820000       0.17090000
    60  H          0.10750000       0.74180000       0.82910000
    61  C          0.87762000       0.15224180       0.03920140
    62  C          0.12238000       0.84775820       0.96079860
    63  N         -0.02108810       0.24403150       0.00729120
    64  N          0.02108810       0.75596850      -0.00729120
    65  C          0.09052000       0.33080190       0.06743150
    66  C          0.90948000       0.66919810       0.93256850
    67  H          0.10660000       0.32840000       0.13150000
    68  H          0.89340000       0.67160000       0.86850000
    69  C          0.19382000       0.43302190       0.04158150
    70  C          0.80618000       0.56697810       0.95841850
    71  C          0.30593000       0.52452000       0.11499180
    72  C          0.69407000       0.47548000       0.88500820
    73  H          0.31460000       0.51610000       0.17750000
    74  H          0.68540000       0.48390000       0.82250000
    75  C          0.40383000       0.62653000       0.09702000
    76  C          0.59617000       0.37347000       0.90298000
    77  H          0.47720000       0.68710000       0.14680000
    78  H          0.52280000       0.31290000       0.85320000
    79  C          0.39223000       0.63792000       0.00492000
    80  C          0.60777000       0.36208000      -0.00492000
    81  H          0.45870000       0.70670000      -0.00750000
    82  H          0.54130000       0.29330000       0.00750000
    83  C          0.28363000       0.54932000       0.92984820
    84  C          0.71637000       0.45068000       0.07015180
    85  H          0.27800000       0.55820000       0.86770000
    86  H          0.72200000       0.44180000       0.13230000
    87  C          0.18282000       0.44656180       0.94763850
    88  C          0.81718000       0.55343820       0.05236150
    89  N          0.07112000       0.35193180       0.87493870
    90  N          0.92888000       0.64806820       0.12506130
    91  S          0.00965600       0.35355500       0.76446600
    92  S         -0.00965600       0.64644500       0.23553400
    93  O          0.88300190       0.24019150       0.72819890
    94  O          0.11699810       0.75980850       0.27180110
    95  O          0.97672000       0.47619160       0.75438870
    96  O          0.02328000       0.52380840       0.24561130
    97  C          0.16673000       0.33282000       0.71103850
    98  C          0.83327000       0.66718000       0.28896150
    99  C          0.24283000       0.43353000       0.67778000
   100  C          0.75717000       0.56647000       0.32222000
   101  H          0.21200000       0.51210000       0.68480000
   102  H          0.78800000       0.48790000       0.31520000
   103  C          0.36414000       0.41524000       0.63448000
   104  C          0.63586000       0.58476000       0.36552000
   105  H          0.41510000       0.48270000       0.61250000
   106  H          0.58490000       0.51730000       0.38750000
   107  C          0.41213000       0.30034000       0.62288000
   108  C          0.58787000       0.69966000       0.37712000
   109  C          0.54694000       0.28176000       0.57577000
   110  C          0.45306000       0.71824000       0.42423000
   111  H          0.64510000       0.33570000       0.61570000
   112  H          0.35490000       0.66430000       0.38430000
   113  H          0.52650000       0.30480000       0.51520000
   114  H          0.47350000       0.69520000       0.48480000
   115  H          0.55450000       0.19280000       0.56660000
   116  H          0.44550000       0.80720000       0.43340000
   117  C          0.33514000       0.20114000       0.65608000
   118  C          0.66486000       0.79886000       0.34392000
   119  H          0.36620000       0.12260000       0.64820000
   120  H          0.63380000       0.87740000       0.35180000
   121  C          0.21253000       0.21553000       0.70096810
   122  C          0.78747000       0.78447000       0.29903190
   123  H          0.16250000       0.14830000       0.72360000
   124  H          0.83750000       0.85170000       0.27640000
   125  H          0.01640000       0.29730000       0.89380000
   126  H         -0.01640000       0.70270000       0.10620000
   127  H          0.72440000       0.07930000       0.78080000
   128  H          0.27560000       0.92070000       0.21920000
