data_MILHOF02
_symmetry_space_group_name_H-M    'P1'
_symmetry_Int_Tables_number       1
loop_
_symmetry_equiv_pos_site_id
_symmetry_equiv_pos_as_xyz
1 x,y,z
_cell_length_a                   10.20596
_cell_length_b                   10.73455
_cell_length_c                   12.87845
_cell_angle_alpha                97.9624
_cell_angle_beta                 95.3605
_cell_angle_gamma                108.6975
loop_
_atom_site_label
_atom_site_type_symbol
_atom_site_fract_x
_atom_site_fract_y
_atom_site_fract_z
     1  C          0.44552000       0.70395190       0.39355150
     2  C          0.55448000       0.29604810       0.60644850
     3  C          0.43933000       0.57282000       0.37034180
     4  C          0.56067000       0.42718000       0.62965820
     5  H          0.50000000       0.54240000       0.40980000
     6  H          0.50000000       0.45760000       0.59020000
     7  C          0.34143000       0.48652000       0.28722000
     8  C          0.65857000       0.51348000       0.71278000
     9  H          0.33710000       0.39800000       0.27110000
    10  H          0.66290000       0.60200000       0.72890000
    11  C          0.25063000       0.53042000       0.22844180
    12  C          0.74937000       0.46958000       0.77155820
    13  C          0.14444000       0.43603000       0.13822000
    14  C          0.85556000       0.56397000       0.86178000
    15  H          0.12190000       0.48600000       0.08710000
    16  H          0.87810000       0.51400000       0.91290000
    17  H          0.06120000       0.38960000       0.16510000
    18  H          0.93880000       0.61040000       0.83490000
    19  H          0.18260000       0.37250000       0.10500000
    20  H          0.81740000       0.62750000       0.89500000
    21  C          0.25823000       0.66213000       0.25382000
    22  C          0.74177000       0.33787000       0.74618000
    23  H          0.19710000       0.69250000       0.21480000
    24  H          0.80290000       0.30750000       0.78520000
    25  C          0.35483000       0.74962000       0.33582000
    26  C          0.64517000       0.25038000       0.66418000
    27  H          0.35870000       0.83800000       0.35200000
    28  H          0.64130000       0.16200000       0.64800000
    29  S          0.56832500       0.81530500       0.49907400
    30  S          0.43167500       0.18469500       0.50092600
    31  O          0.65199170       0.74432170       0.54078120
    32  O          0.34800830       0.25567830       0.45921880
    33  O          0.63462180       0.93836160       0.46312130
    34  O          0.36537820       0.06163840       0.53687870
    35  N          0.48222000       0.85374170       0.59058140
    36  N          0.51778000       0.14625830       0.40941860
    37  H          0.44740000       0.92420000       0.57010000
    38  H          0.55260000       0.07580000       0.42990000
    39  C          0.39663000       0.74722000       0.64191170
    40  C          0.60337000       0.25278000       0.35808830
    41  H          0.44500000       0.75200000       0.71160000
    42  H          0.55500000       0.24800000       0.28840000
    43  H          0.38360000       0.66060000       0.60010000
    44  H          0.61640000       0.33940000       0.39990000
    45  C          0.25672000       0.76162000       0.65212160
    46  C          0.74328000       0.23838000       0.34787840
    47  C          0.13543000       0.67392000       0.58922000
    48  C          0.86457000       0.32608000       0.41078000
    49  H          0.14140000       0.60580000       0.53870000
    50  H          0.85860000       0.39420000       0.46130000
    51  C          0.00603000       0.68523000       0.59952000
    52  C         -0.00603000       0.31477000       0.40048000
    53  H          0.92640000       0.62480000       0.55660000
    54  H          0.07360000       0.37520000       0.44340000
    55  C         -0.00493000       0.78553000       0.67302000
    56  C          0.00493000       0.21447000       0.32698000
    57  H          0.90800000       0.79290000       0.68020000
    58  H          0.09200000       0.20710000       0.31980000
    59  C          0.11362000       0.87542000       0.73618190
    60  C          0.88638000       0.12458000       0.26381810
    61  H          0.10590000       0.94300000       0.78630000
    62  H          0.89410000       0.05700000       0.21370000
    63  C          0.24532000       0.86550190       0.72515150
    64  C          0.75468000       0.13449810       0.27484850
    65  N          0.36979170       0.95281170       0.78961130
    66  N          0.63020830       0.04718830       0.21038870
    67  C          0.37772000       0.06952000       0.83227170
    68  C          0.62228000       0.93048000       0.16772830
    69  H          0.30420000       0.09920000       0.81320000
    70  H          0.69580000       0.90080000       0.18680000
    71  C          0.49582000       0.16012000       0.90968170
    72  C          0.50418000       0.83988000       0.09031830
    73  C          0.48103000       0.27712000       0.96022000
    74  C          0.51897000       0.72288000       0.03978000
    75  H          0.40090000       0.29680000       0.94020000
    76  H          0.59910000       0.70320000       0.05980000
    77  C          0.58243000       0.36492000       0.03952000
    78  C          0.41757000       0.63508000       0.96048000
    79  H          0.57010000       0.44180000       0.07340000
    80  H          0.42990000       0.55820000       0.92660000
    81  C          0.70183000       0.33652000       0.06722000
    82  C          0.29817000       0.66348000       0.93278000
    83  H          0.77100000       0.39550000       0.11990000
    84  H          0.22900000       0.60450000       0.88010000
    85  C          0.72072000       0.22242000       0.01857180
    86  C          0.27928000       0.77758000       0.98142820
    87  H          0.80220000       0.20520000       0.03870000
    88  H          0.19780000       0.79480000       0.96130000
    89  C          0.61872000       0.13255190       0.93935150
    90  C          0.38128000       0.86744810       0.06064850
    91  N          0.62983190       0.01358190       0.88782160
    92  N          0.37016810      -0.01358190       0.11217840
    93  H          0.55170000       0.95520000       0.84360000
    94  H          0.44830000       0.04480000       0.15640000
    95  S          0.76593500       0.96617500       0.89343400
    96  S          0.23406500       0.03382500       0.10656600
    97  O          0.71764190       0.83661160       0.82905160
    98  O          0.28235810       0.16338840       0.17094840
    99  O          0.82666180      -0.01581820       0.00173130
   100  O          0.17333820       0.01581820      -0.00173130
   101  C          0.88842000       0.07572000       0.83108160
   102  C          0.11158000       0.92428000       0.16891840
   103  C          0.87133000       0.05932000       0.72114180
   104  C          0.12867000       0.94068000       0.27885820
   105  H          0.79550000      -0.00910000       0.68060000
   106  H          0.20450000       0.00910000       0.31940000
   107  C          0.96763000       0.14533000       0.67243190
   108  C          0.03237000       0.85467000       0.32756810
   109  H          0.95660000       0.13350000       0.59880000
   110  H          0.04340000       0.86650000       0.40120000
   111  C          0.08073000       0.24923000       0.73162000
   112  C          0.91927000       0.75077000       0.26838000
   113  C          0.18604000       0.34544000       0.67923000
   114  C          0.81396000       0.65456000       0.32077000
   115  H          0.19460000       0.29990000       0.61200000
   116  H          0.80540000       0.70010000       0.38800000
   117  H          0.27520000       0.37840000       0.72380000
   118  H          0.72480000       0.62160000       0.27620000
   119  H          0.15500000       0.41890000       0.66880000
   120  H          0.84500000       0.58110000       0.33120000
   121  C          0.09522000       0.26412000       0.84117190
   122  C          0.90478000       0.73588000       0.15882810
   123  H          0.16980000       0.33370000       0.88170000
   124  H          0.83020000       0.66630000       0.11830000
   125  C          0.00132000       0.17792000       0.89156160
   126  C         -0.00132000       0.82208000       0.10843840
   127  H          0.01370000       0.18830000       0.96510000
   128  H         -0.01370000       0.81170000       0.03490000
