data_MIQXUI
_symmetry_space_group_name_H-M    'P1'
_symmetry_Int_Tables_number       1
loop_
_symmetry_equiv_pos_site_id
_symmetry_equiv_pos_as_xyz
1 x,y,z
_cell_length_a                   6.748816
_cell_length_b                   18.0914
_cell_length_c                   10.9423
_cell_angle_alpha                90.0
_cell_angle_beta                 94.5304
_cell_angle_gamma                90.0
loop_
_atom_site_label
_atom_site_type_symbol
_atom_site_fract_x
_atom_site_fract_y
_atom_site_fract_z
     1  S          0.60287500       0.30802200       0.63142300
     2  S          0.89712500       0.80802200       0.86857700
     3  S          0.39712500       0.69197800       0.36857700
     4  S          0.10287500       0.19197800       0.13142300
     5  S          0.94212500       0.32678200       0.44410300
     6  S          0.55787500       0.82678200       0.05589700
     7  S          0.05787500       0.67321800       0.55589700
     8  S          0.44212500       0.17321800       0.94410300
     9  S          0.69200500       0.16824200       0.44998300
    10  S          0.80799500       0.66824200       0.05001700
    11  S          0.30799500       0.83175800       0.55001700
    12  S          0.19200500       0.33175800       0.94998300
    13  P          0.81596500       0.24666200       0.54977300
    14  P          0.68403500       0.74666200       0.95022700
    15  P          0.18403500       0.75333800       0.45022700
    16  P          0.31596500       0.25333800       0.04977300
    17  C          0.74442000       0.38184700       0.70310120
    18  C          0.75558000       0.88184700       0.79689880
    19  C          0.25558000       0.61815300       0.29689880
    20  C          0.24442000       0.11815300       0.20310120
    21  C          0.65892000       0.40934800       0.80381130
    22  C          0.84108000       0.90934800       0.69618870
    23  C          0.34108000       0.59065200       0.19618870
    24  C          0.15892000       0.09065200       0.30381130
    25  H          0.54190000       0.38670000       0.82910000
    26  H          0.95810000       0.88670000       0.67090000
    27  H          0.45810000       0.61330000       0.17090000
    28  H          0.04190000       0.11330000       0.32910000
    29  C          0.74052000       0.47003800       0.86986130
    30  C          0.75948000       0.97003800       0.63013870
    31  C          0.25948000       0.52996200       0.13013870
    32  C          0.24052000       0.02996200       0.36986130
    33  H          0.67580000       0.48970000       0.93670000
    34  H          0.82420000       0.98970000       0.56330000
    35  H          0.32420000       0.51030000       0.06330000
    36  H          0.17580000       0.01030000       0.43670000
    37  C          0.91362000       0.50058800       0.83736130
    38  C          0.58638000       0.00058800       0.66263870
    39  C          0.08638000       0.49941200       0.16263870
    40  C          0.41362000      -0.00058800       0.33736130
    41  H          0.97110000       0.54070000       0.88350000
    42  H          0.52890000       0.04070000       0.61650000
    43  H          0.02890000       0.45930000       0.11650000
    44  H          0.47110000       0.95930000       0.38350000
    45  C          0.00842000       0.47330700       0.73595120
    46  C          0.49158000       0.97330700       0.76404880
    47  C         -0.00842000       0.52669300       0.26404880
    48  C          0.50842000       0.02669300       0.23595120
    49  C          0.18912000       0.50596800       0.70682130
    50  C          0.31088000       0.00596800       0.79317870
    51  C          0.81088000       0.49403200       0.29317870
    52  C          0.68912000      -0.00596800       0.20682130
    53  H          0.24550000       0.54460000       0.75710000
    54  H          0.25450000       0.04460000       0.74290000
    55  H          0.75450000       0.45540000       0.24290000
    56  H          0.74550000       0.95540000       0.25710000
    57  C          0.28362000       0.48325800       0.60831140
    58  C          0.21638000       0.98325800       0.89168860
    59  C          0.71638000       0.51674200       0.39168860
    60  C          0.78362000       0.01674200       0.10831140
    61  H          0.40450000       0.50600000       0.58970000
    62  H          0.09550000       0.00600000       0.91030000
    63  H          0.59550000       0.49400000       0.41030000
    64  H          0.90450000      -0.00600000       0.08970000
    65  C          0.20132000       0.42599800       0.53436130
    66  C          0.29868000       0.92599800       0.96563870
    67  C          0.79868000       0.57400200       0.46563870
    68  C          0.70132000       0.07400200       0.03436130
    69  H          0.26810000       0.41010000       0.46580000
    70  H          0.23190000       0.91010000       0.03420000
    71  H          0.73190000       0.58990000       0.53420000
    72  H          0.76810000       0.08990000       0.96580000
    73  C          0.02652000       0.39231700       0.55873120
    74  C          0.47348000       0.89231700       0.94126880
    75  C          0.97348000       0.60768300       0.44126880
    76  C          0.52652000       0.10768300       0.05873120
    77  C          0.92252000       0.41376700       0.66281120
    78  C          0.57748000       0.91376700       0.83718880
    79  C          0.07748000       0.58623300       0.33718880
    80  C          0.42252000       0.08623300       0.16281120
    81  C          0.00851190       0.21933800       0.66785120
    82  C          0.49148810       0.71933800       0.83214880
    83  C         -0.00851190       0.78066200       0.33214880
    84  C          0.50851190       0.28066200       0.16785120
    85  H          0.06270000       0.26510000       0.70940000
    86  H          0.43730000       0.76510000       0.79060000
    87  H          0.93730000       0.73490000       0.29060000
    88  H          0.56270000       0.23490000       0.20940000
    89  C          0.91972000       0.17067800       0.76405130
    90  C          0.58028000       0.67067800       0.73594870
    91  C          0.08028000       0.82932200       0.23594870
    92  C          0.41972000       0.32932200       0.26405130
    93  H          0.02360000       0.15760000       0.82800000
    94  H          0.47640000       0.65760000       0.67200000
    95  H          0.97640000       0.84240000       0.17200000
    96  H          0.52360000       0.34240000       0.32800000
    97  H          0.86510000       0.12550000       0.72500000
    98  H          0.63490000       0.62550000       0.77500000
    99  H          0.13490000       0.87450000       0.27500000
   100  H          0.36510000       0.37450000       0.22500000
   101  H          0.81350000       0.19780000       0.80080000
   102  H          0.68650000       0.69780000       0.69920000
   103  H          0.18650000       0.80220000       0.19920000
   104  H          0.31350000       0.30220000       0.30080000
   105  C          0.17752000       0.18119800       0.60742130
   106  C          0.32248000       0.68119800       0.89257870
   107  C          0.82248000       0.81880200       0.39257870
   108  C          0.67752000       0.31880200       0.10742130
   109  H          0.13140000       0.13330000       0.57420000
   110  H          0.36860000       0.63330000       0.92580000
   111  H          0.86860000       0.86670000       0.42580000
   112  H          0.63140000       0.36670000       0.07420000
   113  H          0.28990000       0.17350000       0.66840000
   114  H          0.21010000       0.67350000       0.83160000
   115  H          0.71010000       0.82650000       0.33160000
   116  H          0.78990000       0.32650000       0.16840000
   117  H          0.21970000       0.21230000       0.54080000
   118  H          0.28030000       0.71230000       0.95920000
   119  H          0.78030000       0.78770000       0.45920000
   120  H          0.71970000       0.28770000       0.04080000
