data_MIQXUI01
_symmetry_space_group_name_H-M    'P1'
_symmetry_Int_Tables_number       1
loop_
_symmetry_equiv_pos_site_id
_symmetry_equiv_pos_as_xyz
1 x,y,z
_cell_length_a                   9.0346
_cell_length_b                   12.67861
_cell_length_c                   12.8359
_cell_angle_alpha                108.13514
_cell_angle_beta                 91.5618
_cell_angle_gamma                99.76819
loop_
_atom_site_label
_atom_site_type_symbol
_atom_site_fract_x
_atom_site_fract_y
_atom_site_fract_z
     1  S          0.47933160       0.06621130       0.20107130
     2  S          0.52066840       0.93378870       0.79892870
     3  S          0.23093160       0.90737880       0.28948120
     4  S          0.76906840       0.09262120       0.71051880
     5  S          0.18520170       0.90645870       0.03256130
     6  S          0.81479830       0.09354130       0.96743870
     7  P          0.24966160       0.00102120       0.18211120
     8  P          0.75033840      -0.00102120       0.81788880
     9  C          0.51356000       0.13515000       0.34555000
    10  C          0.48644000       0.86485000       0.65445000
    11  C          0.63376000       0.22445000       0.37225000
    12  C          0.36624000       0.77555000       0.62775000
    13  H          0.68370000       0.24390000       0.31480000
    14  H          0.31630000       0.75610000       0.68520000
    15  C          0.68427000       0.28725000       0.48166000
    16  C          0.31573000       0.71275000       0.51834000
    17  H          0.76800000       0.34790000       0.49790000
    18  H          0.23200000       0.65210000       0.50210000
    19  C          0.61237000       0.26075000       0.56416000
    20  C          0.38763000       0.73925000       0.43584000
    21  H          0.64600000       0.30380000       0.63830000
    22  H          0.35400000       0.69620000       0.36170000
    23  C          0.48766000       0.16975000       0.54155000
    24  C          0.51234000       0.83025000       0.45845000
    25  C          0.41707000       0.14565000       0.62965000
    26  C          0.58293000       0.85435000       0.37035000
    27  H          0.45450000       0.18990000       0.70280000
    28  H          0.54550000       0.81010000       0.29720000
    29  C          0.29507000       0.05975000       0.61265000
    30  C          0.70493000       0.94025000       0.38735000
    31  H          0.24830000       0.04490000       0.67340000
    32  H          0.75170000       0.95510000       0.32660000
    33  C          0.23996000      -0.00635000       0.50465000
    34  C          0.76004000       0.00635000       0.49535000
    35  H          0.15440000       0.93490000       0.49250000
    36  H          0.84560000       0.06510000       0.50750000
    37  C          0.30756000       0.01285000       0.41635000
    38  C          0.69244000      -0.01285000       0.58365000
    39  C          0.43516000       0.10334000       0.43025000
    40  C          0.56484000       0.89666000       0.56975000
    41  C          0.15486000       0.12105000       0.23965000
    42  C          0.84514000       0.87895000       0.76035000
    43  H          0.20630000       0.16640000       0.31390000
    44  H          0.79370000       0.83360000       0.68610000
    45  C          0.17127000       0.19595000       0.16646000
    46  C          0.82873000       0.80405000       0.83354000
    47  H          0.12630000       0.26250000       0.19930000
    48  H          0.87370000       0.73750000       0.80070000
    49  H          0.11960000       0.15330000       0.09350000
    50  H          0.88040000       0.84670000       0.90650000
    51  H          0.27840000       0.21990000       0.15920000
    52  H          0.72160000       0.78010000       0.84080000
    53  C         -0.00947000       0.08016000       0.25356000
    54  C          0.00947000       0.91984000       0.74644000
    55  H          0.93740000       0.03670000       0.18130000
    56  H          0.06260000       0.96330000       0.81870000
    57  H          0.94340000       0.14520000       0.28770000
    58  H          0.05660000       0.85480000       0.71230000
    59  H         -0.01490000       0.03190000       0.30060000
    60  H          0.01490000       0.96810000       0.69940000
    61  S          0.09467150       0.39746130       0.83417130
    62  S          0.90532850       0.60253870       0.16582870
    63  S          0.36257160       0.58349110       0.80084120
    64  S          0.63742840       0.41650890       0.19915880
    65  S          0.02308170       0.55033130       0.67725130
    66  S          0.97691830       0.44966870       0.32274870
    67  P          0.16947160       0.47183120       0.71703120
    68  P          0.83052840       0.52816880       0.28296880
    69  C          0.25446000       0.34315000       0.86414000
    70  C          0.74554000       0.65685000       0.13586000
    71  C          0.21596000       0.24495000       0.89035000
    72  C          0.78404000       0.75505000       0.10965000
    73  H          0.11250000       0.21110000       0.88480000
    74  H          0.88750000       0.78890000       0.11520000
    75  C          0.32417000       0.19395000       0.92455000
    76  C          0.67583000       0.80605000       0.07545000
    77  H          0.29460000       0.12670000       0.94280000
    78  H          0.70540000       0.87330000       0.05720000
    79  C          0.47237000       0.24105000       0.93165000
    80  C          0.52763000       0.75895000       0.06835000
    81  H          0.54590000       0.20710000       0.95670000
    82  H          0.45410000       0.79290000       0.04330000
    83  C          0.51937000       0.33945000       0.90224000
    84  C          0.48063000       0.66055000       0.09776000
    85  C          0.67726000       0.38205000       0.90585000
    86  C          0.32274000       0.61795000       0.09415000
    87  H          0.74850000       0.34650000       0.93120000
    88  H          0.25150000       0.65350000       0.06880000
    89  C          0.72506000       0.47255000       0.87325000
    90  C          0.27494000       0.52745000       0.12675000
    91  H          0.82990000       0.50020000       0.87500000
    92  H          0.17010000       0.49980000       0.12500000
    93  C          0.62066000       0.52515000       0.83705000
    94  C          0.37934000       0.47485000       0.16295000
    95  H          0.65640000       0.58660000       0.81120000
    96  H          0.34360000       0.41340000       0.18880000
    97  C          0.46856000       0.49194000       0.83705000
    98  C          0.53144000       0.50806000       0.16295000
    99  C          0.40856000       0.39334000       0.86694000
   100  C          0.59144000       0.60666000       0.13306000
   101  C          0.22936000       0.36294000       0.60515000
   102  C          0.77064000       0.63706000       0.39485000
   103  H          0.30540000       0.33080000       0.63780000
   104  H          0.69460000       0.66920000       0.36220000
   105  C          0.09526000       0.26555000       0.55035000
   106  C          0.90474000       0.73445000       0.44965000
   107  H          0.13180000       0.20380000       0.49660000
   108  H          0.86820000       0.79620000       0.50340000
   109  H          0.02170000       0.29310000       0.51290000
   110  H          0.97830000       0.70690000       0.48710000
   111  H          0.04710000       0.23780000       0.60680000
   112  H          0.95290000       0.76220000       0.39320000
   113  C          0.30637000       0.41375000       0.52345000
   114  C          0.69363000       0.58625000       0.47655000
   115  H          0.23410000       0.44520000       0.48920000
   116  H          0.76590000       0.55480000       0.51080000
   117  H          0.34320000       0.35480000       0.46640000
   118  H          0.65680000       0.64520000       0.53360000
   119  H          0.39140000       0.47370000       0.56180000
   120  H          0.60860000       0.52630000       0.43820000
