data_MIQXUI02
_symmetry_space_group_name_H-M    'P1'
_symmetry_Int_Tables_number       1
loop_
_symmetry_equiv_pos_site_id
_symmetry_equiv_pos_as_xyz
1 x,y,z
_cell_length_a                   13.026914
_cell_length_b                   12.624416
_cell_length_c                   16.7822
_cell_angle_alpha                90.0
_cell_angle_beta                 90.0
_cell_angle_gamma                90.0
loop_
_atom_site_label
_atom_site_type_symbol
_atom_site_fract_x
_atom_site_fract_y
_atom_site_fract_z
     1  S          0.81812400       0.37661400       0.39936300
     2  S          0.68187600       0.62338600       0.89936300
     3  S          0.31812400       0.12338600       0.10063700
     4  S          0.18187600       0.87661400       0.60063700
     5  S          0.18187600       0.62338600       0.60063700
     6  S          0.31812400       0.37661400       0.10063700
     7  S          0.68187600       0.87661400       0.89936300
     8  S          0.81812400       0.12338600       0.39936300
     9  S          0.75310600       0.25000000       0.56331400
    10  S          0.74689400       0.75000000       0.06331400
    11  S          0.25310600       0.25000000       0.93668600
    12  S          0.24689400       0.75000000       0.43668600
    13  P          0.84679500       0.25000000       0.47426400
    14  P          0.65320500       0.75000000       0.97426400
    15  P          0.34679500       0.25000000       0.02573600
    16  P          0.15320500       0.75000000       0.52573600
    17  C          0.90089120       0.35170140       0.31706900
    18  C          0.59910880       0.64829860       0.81706900
    19  C          0.40089120       0.14829860       0.18293100
    20  C          0.09910880       0.85170140       0.68293100
    21  C          0.09910880       0.64829860       0.68293100
    22  C          0.40089120       0.35170140       0.18293100
    23  C          0.59910880       0.85170140       0.81706900
    24  C          0.90089120       0.14829860       0.31706900
    25  C          0.93537140       0.44338170       0.28217120
    26  C          0.56462860       0.55661830       0.78217120
    27  C          0.43537140       0.05661830       0.21782880
    28  C          0.06462860       0.94338170       0.71782880
    29  C          0.06462860       0.55661830       0.71782880
    30  C          0.43537140       0.44338170       0.21782880
    31  C          0.56462860       0.94338170       0.78217120
    32  C          0.93537140       0.05661830       0.28217120
    33  H          0.91980000       0.50970000       0.30600000
    34  H          0.58020000       0.49030000       0.80600000
    35  H          0.41980000      -0.00970000       0.19400000
    36  H          0.08020000       0.00970000       0.69400000
    37  H          0.08020000       0.49030000       0.69400000
    38  H          0.41980000       0.50970000       0.19400000
    39  H          0.58020000       0.00970000       0.80600000
    40  H          0.91980000      -0.00970000       0.30600000
    41  C         -0.00696840       0.44042000       0.21198130
    42  C          0.50696840       0.55958000       0.71198130
    43  C          0.49303160       0.05958000       0.28801870
    44  C          0.00696840       0.94042000       0.78801870
    45  C          0.00696840       0.55958000       0.78801870
    46  C          0.49303160       0.44042000       0.28801870
    47  C          0.50696840       0.94042000       0.71198130
    48  C         -0.00696840       0.05958000       0.21198130
    49  H          0.01410000       0.50460000       0.18750000
    50  H          0.48590000       0.49540000       0.68750000
    51  H          0.51410000      -0.00460000       0.31250000
    52  H          0.98590000       0.00460000       0.81250000
    53  H          0.98590000       0.49540000       0.81250000
    54  H          0.51410000       0.50460000       0.31250000
    55  H          0.48590000       0.00460000       0.68750000
    56  H          0.01410000      -0.00460000       0.18750000
    57  C          0.01876140       0.34702000       0.17903110
    58  C          0.48123860       0.65298000       0.67903110
    59  C          0.51876140       0.15298000       0.32096890
    60  C          0.98123860       0.84702000       0.82096890
    61  C          0.98123860       0.65298000       0.82096890
    62  C          0.51876140       0.34702000       0.32096890
    63  C          0.48123860       0.84702000       0.67903110
    64  C          0.01876140       0.15298000       0.17903110
    65  H          0.05820000       0.34620000       0.13140000
    66  H          0.44180000       0.65380000       0.63140000
    67  H          0.55820000       0.15380000       0.36860000
    68  H          0.94180000       0.84620000       0.86860000
    69  H          0.94180000       0.65380000       0.86860000
    70  H          0.55820000       0.34620000       0.36860000
    71  H          0.44180000       0.84620000       0.63140000
    72  H          0.05820000       0.15380000       0.13140000
    73  C          0.98830180       0.25000000       0.21382140
    74  C          0.51169820       0.75000000       0.71382140
    75  C          0.48830180       0.25000000       0.28617860
    76  C          0.01169820       0.75000000       0.78617860
    77  C          0.92676160       0.25000000       0.28506130
    78  C          0.57323840       0.75000000       0.78506130
    79  C          0.42676160       0.25000000       0.21493870
    80  C          0.07323840       0.75000000       0.71493870
    81  C          0.98415180       0.25000000       0.49604150
    82  C          0.51584820       0.75000000      -0.00395850
    83  C          0.48415180       0.25000000       0.00395850
    84  C          0.01584820       0.75000000       0.50395850
    85  H          0.02220000       0.25000000       0.44430000
    86  H          0.47780000       0.75000000       0.94430000
    87  H          0.52220000       0.25000000       0.05570000
    88  H          0.97780000       0.75000000       0.55570000
    89  C          0.01425190       0.34844170       0.54176150
    90  C          0.48574810       0.65155830       0.04176150
    91  C          0.51425190       0.15155830       0.95823850
    92  C          0.98574810       0.84844170       0.45823850
    93  C          0.98574810       0.65155830       0.45823850
    94  C          0.51425190       0.34844170       0.95823850
    95  C          0.48574810       0.84844170       0.04176150
    96  C          0.01425190       0.15155830       0.54176150
    97  H          0.98530000       0.34520000       0.59560000
    98  H          0.51470000       0.65480000       0.09560000
    99  H          0.48530000       0.15480000       0.90440000
   100  H          0.01470000       0.84520000       0.40440000
   101  H          0.01470000       0.65480000       0.40440000
   102  H          0.48530000       0.34520000       0.90440000
   103  H          0.51470000       0.84520000       0.09560000
   104  H          0.98530000       0.15480000       0.59560000
   105  H          0.98770000       0.41120000       0.51420000
   106  H          0.51230000       0.58880000       0.01420000
   107  H          0.48770000       0.08880000       0.98580000
   108  H          0.01230000       0.91120000       0.48580000
   109  H          0.01230000       0.58880000       0.48580000
   110  H          0.48770000       0.41120000       0.98580000
   111  H          0.51230000       0.91120000       0.01420000
   112  H          0.98770000       0.08880000       0.51420000
   113  H          0.08920000       0.35280000       0.54510000
   114  H          0.41080000       0.64720000       0.04510000
   115  H          0.58920000       0.14720000       0.95490000
   116  H          0.91080000       0.85280000       0.45490000
   117  H          0.91080000       0.64720000       0.45490000
   118  H          0.58920000       0.35280000       0.95490000
   119  H          0.41080000       0.85280000       0.04510000
   120  H          0.08920000       0.14720000       0.54510000
   121  S          0.44538300       0.12357300       0.54409200
   122  S          0.05461700       0.87642700       0.04409200
   123  S          0.94538300       0.37642700       0.95590800
   124  S          0.55461700       0.62357300       0.45590800
   125  S          0.55461700       0.87642700       0.45590800
   126  S          0.94538300       0.12357300       0.95590800
   127  S          0.05461700       0.62357300       0.04409200
   128  S          0.44538300       0.37642700       0.54409200
   129  S          0.53653400       0.25000000       0.70183300
   130  S          0.96346600       0.75000000       0.20183300
   131  S          0.03653400       0.25000000       0.79816700
   132  S          0.46346600       0.75000000       0.29816700
   133  P          0.43061400       0.25000000       0.62153300
   134  P          0.06938600       0.75000000       0.12153300
   135  P          0.93061400       0.25000000       0.87846700
   136  P          0.56938600       0.75000000       0.37846700
   137  C          0.34420110       0.14835130       0.47520800
   138  C          0.15579890       0.85164870       0.97520800
   139  C          0.84420110       0.35164870       0.02479200
   140  C          0.65579890       0.64835130       0.52479200
   141  C          0.65579890       0.85164870       0.52479200
   142  C          0.84420110       0.14835130       0.02479200
   143  C          0.15579890       0.64835130       0.97520800
   144  C          0.34420110       0.35164870       0.47520800
   145  C          0.30315120       0.05649140       0.44508100
   146  C          0.19684880       0.94350860       0.94508100
   147  C          0.80315120       0.44350860       0.05491900
   148  C          0.69684880       0.55649140       0.55491900
   149  C          0.69684880       0.94350860       0.55491900
   150  C          0.80315120       0.05649140       0.05491900
   151  C          0.19684880       0.55649140       0.94508100
   152  C          0.30315120       0.44350860       0.44508100
   153  H          0.32430000      -0.00970000       0.46630000
   154  H          0.17570000       0.00970000       0.96630000
   155  H          0.82430000       0.50970000       0.03370000
   156  H          0.67570000       0.49030000       0.53370000
   157  H          0.67570000       0.00970000       0.53370000
   158  H          0.82430000      -0.00970000       0.03370000
   159  H          0.17570000       0.49030000       0.96630000
   160  H          0.32430000       0.50970000       0.46630000
   161  C          0.23065140       0.05889170       0.38362110
   162  C          0.26934860       0.94110830       0.88362110
   163  C          0.73065140       0.44110830       0.11637890
   164  C          0.76934860       0.55889170       0.61637890
   165  C          0.76934860       0.94110830       0.61637890
   166  C          0.73065140       0.05889170       0.11637890
   167  C          0.26934860       0.55889170       0.88362110
   168  C          0.23065140       0.44110830       0.38362110
   169  H          0.20400000      -0.00530000       0.36250000
   170  H          0.29600000       0.00530000       0.86250000
   171  H          0.70400000       0.50530000       0.13750000
   172  H          0.79600000       0.49470000       0.63750000
   173  H          0.79600000       0.00530000       0.63750000
   174  H          0.70400000      -0.00530000       0.13750000
   175  H          0.29600000       0.49470000       0.86250000
   176  H          0.20400000       0.50530000       0.36250000
   177  C          0.19878140       0.15295170       0.35450100
   178  C          0.30121860       0.84704830       0.85450100
   179  C          0.69878140       0.34704830       0.14549900
   180  C          0.80121860       0.65295170       0.64549900
   181  C          0.80121860       0.84704830       0.64549900
   182  C          0.69878140       0.15295170       0.14549900
   183  C          0.30121860       0.65295170       0.85450100
   184  C          0.19878140       0.34704830       0.35450100
   185  H          0.15010000       0.15400000       0.31240000
   186  H          0.34990000       0.84600000       0.81240000
   187  H          0.65010000       0.34600000       0.18760000
   188  H          0.84990000       0.65400000       0.68760000
   189  H          0.84990000       0.84600000       0.68760000
   190  H          0.65010000       0.15400000       0.18760000
   191  H          0.34990000       0.65400000       0.81240000
   192  H          0.15010000       0.34600000       0.31240000
   193  C          0.23599170       0.25000000       0.38505130
   194  C          0.26400830       0.75000000       0.88505130
   195  C          0.73599170       0.25000000       0.11494870
   196  C          0.76400830       0.75000000       0.61494870
   197  C          0.31188150       0.25000000       0.44749120
   198  C          0.18811850       0.75000000       0.94749120
   199  C          0.81188150       0.25000000       0.05250880
   200  C          0.68811850       0.75000000       0.55250880
   201  C          0.29933150       0.25000000       0.66012120
   202  C          0.20066850       0.75000000       0.16012120
   203  C          0.79933150       0.25000000       0.83987880
   204  C          0.70066850       0.75000000       0.33987880
   205  H          0.25050000       0.25000000       0.61420000
   206  H          0.24950000       0.75000000       0.11420000
   207  H          0.75050000       0.25000000       0.88580000
   208  H          0.74950000       0.75000000       0.38580000
   209  C          0.28197140       0.15029140       0.70902110
   210  C          0.21802860       0.84970860       0.20902110
   211  C          0.78197140       0.34970860       0.79097890
   212  C          0.71802860       0.65029140       0.29097890
   213  C          0.71802860       0.84970860       0.29097890
   214  C          0.78197140       0.15029140       0.79097890
   215  C          0.21802860       0.65029140       0.20902110
   216  C          0.28197140       0.34970860       0.70902110
   217  H          0.33090000       0.14840000       0.75340000
   218  H          0.16910000       0.85160000       0.25340000
   219  H          0.83090000       0.35160000       0.74660000
   220  H          0.66910000       0.64840000       0.24660000
   221  H          0.66910000       0.85160000       0.24660000
   222  H          0.83090000       0.14840000       0.74660000
   223  H          0.16910000       0.64840000       0.25340000
   224  H          0.33090000       0.35160000       0.75340000
   225  H          0.29210000       0.08790000       0.67520000
   226  H          0.20790000       0.91210000       0.17520000
   227  H          0.79210000       0.41210000       0.82480000
   228  H          0.70790000       0.58790000       0.32480000
   229  H          0.70790000       0.91210000       0.32480000
   230  H          0.79210000       0.08790000       0.82480000
   231  H          0.20790000       0.58790000       0.17520000
   232  H          0.29210000       0.41210000       0.67520000
   233  H          0.21180000       0.15030000       0.73000000
   234  H          0.28820000       0.84970000       0.23000000
   235  H          0.71180000       0.34970000       0.77000000
   236  H          0.78820000       0.65030000       0.27000000
   237  H          0.78820000       0.84970000       0.27000000
   238  H          0.71180000       0.15030000       0.77000000
   239  H          0.28820000       0.65030000       0.23000000
   240  H          0.21180000       0.34970000       0.73000000
