data_MIQXOC02
_symmetry_space_group_name_H-M    'P1'
_symmetry_Int_Tables_number       1
loop_
_symmetry_equiv_pos_site_id
_symmetry_equiv_pos_as_xyz
1 x,y,z
_cell_length_a                   18.039717
_cell_length_b                   9.86191
_cell_length_c                   15.587615
_cell_angle_alpha                90.0
_cell_angle_beta                 114.1118
_cell_angle_gamma                90.0
loop_
_atom_site_label
_atom_site_type_symbol
_atom_site_fract_x
_atom_site_fract_y
_atom_site_fract_z
     1  S          0.00160500       0.50307100       0.37355600
     2  S         -0.00160500       0.00307100       0.12644400
     3  S         -0.00160500       0.49692900       0.62644400
     4  S          0.00160500      -0.00307100       0.87355600
     5  S          0.08562500       0.48417900       0.23129600
     6  S          0.91437500       0.98417900       0.26870400
     7  S          0.91437500       0.51582100       0.76870400
     8  S          0.08562500       0.01582100       0.73129600
     9  P          0.11367500       0.54691900       0.36933600
    10  P          0.88632500       0.04691900       0.13066400
    11  P          0.88632500       0.45308100       0.63066400
    12  P          0.11367500       0.95308100       0.86933600
    13  C          0.92827190       0.58903000       0.27532000
    14  C          0.07172810       0.08903000       0.22468000
    15  C          0.07172810       0.41097000       0.72468000
    16  C          0.92827190       0.91097000       0.77532000
    17  C          0.86002000       0.62474000       0.28882000
    18  C          0.13998000       0.12474000       0.21118000
    19  C          0.13998000       0.37526000       0.71118000
    20  C          0.86002000       0.87526000       0.78882000
    21  H          0.85790000       0.60630000       0.34760000
    22  H          0.14210000       0.10630000       0.15240000
    23  H          0.14210000       0.39370000       0.65240000
    24  H          0.85790000       0.89370000       0.84760000
    25  C          0.79372000       0.68754000       0.21803000
    26  C          0.20628000       0.18754000       0.28197000
    27  C          0.20628000       0.31246000       0.78197000
    28  C          0.79372000       0.81246000       0.71803000
    29  H          0.74700000       0.71050000       0.22870000
    30  H          0.25300000       0.21050000       0.27130000
    31  H          0.25300000       0.28950000       0.77130000
    32  H          0.74700000       0.78950000       0.72870000
    33  C          0.79592000       0.71564000       0.13383000
    34  C          0.20408000       0.21564000       0.36617000
    35  C          0.20408000       0.28436000       0.86617000
    36  C          0.79592000       0.78436000       0.63383000
    37  H          0.75070000       0.75850000       0.08600000
    38  H          0.24930000       0.25850000       0.41400000
    39  H          0.24930000       0.24150000       0.91400000
    40  H          0.75070000       0.74150000       0.58600000
    41  C          0.86462190       0.68203000       0.11632000
    42  C          0.13537810       0.18203000       0.38368000
    43  C          0.13537810       0.31797000       0.88368000
    44  C          0.86462190       0.81797000       0.61632000
    45  C          0.86492000       0.71153000       0.02752000
    46  C          0.13508000       0.21153000       0.47248000
    47  C          0.13508000       0.28847000       0.97248000
    48  C          0.86492000       0.78847000       0.52752000
    49  H          0.81880000       0.75350000       0.98050000
    50  H          0.18120000       0.25350000       0.51950000
    51  H          0.18120000       0.24650000       0.01950000
    52  H          0.81880000       0.74650000       0.48050000
    53  C          0.92972000       0.68074000       0.00852000
    54  C          0.07028000       0.18074000       0.49148000
    55  C          0.07028000       0.31926000      -0.00852000
    56  C          0.92972000       0.81926000       0.50852000
    57  H          0.92930000       0.70160000       0.94880000
    58  H          0.07070000       0.20160000       0.55120000
    59  H          0.07070000       0.29840000       0.05120000
    60  H          0.92930000       0.79840000       0.44880000
    61  C         -0.00268000       0.61803000       0.07712000
    62  C          0.00268000       0.11803000       0.42288000
    63  C          0.00268000       0.38197000       0.92288000
    64  C         -0.00268000       0.88197000       0.57712000
    65  H          0.04320000       0.59940000       0.06380000
    66  H          0.95680000       0.09940000       0.43620000
    67  H          0.95680000       0.40060000       0.93620000
    68  H          0.04320000       0.90060000       0.56380000
    69  C         -0.00046810       0.58223000       0.16322000
    70  C          0.00046810       0.08223000       0.33678000
    71  C          0.00046810       0.41777000       0.83678000
    72  C         -0.00046810       0.91777000       0.66322000
    73  C          0.93323180       0.61513000       0.18792000
    74  C          0.06676820       0.11513000       0.31208000
    75  C          0.06676820       0.38487000       0.81208000
    76  C          0.93323180       0.88487000       0.68792000
    77  C          0.11522000       0.73483000       0.36332000
    78  C          0.88478000       0.23483000       0.13668000
    79  C          0.88478000       0.26517000       0.63668000
    80  C          0.11522000       0.76517000       0.86332000
    81  H          0.06130000       0.76850000       0.31730000
    82  H          0.93870000       0.26850000       0.18270000
    83  H          0.93870000       0.23150000       0.68270000
    84  H          0.06130000       0.73150000       0.81730000
    85  C          0.13122000       0.78654000       0.46172000
    86  C          0.86878000       0.28654000       0.03828000
    87  C          0.86878000       0.21346000       0.53828000
    88  C          0.13122000       0.71346000       0.96172000
    89  H          0.12710000       0.88560000       0.46060000
    90  H          0.87290000       0.38560000       0.03940000
    91  H          0.87290000       0.11440000       0.53940000
    92  H          0.12710000       0.61440000       0.96060000
    93  H          0.18580000       0.75920000       0.50560000
    94  H          0.81420000       0.25920000      -0.00560000
    95  H          0.81420000       0.24080000       0.49440000
    96  H          0.18580000       0.74080000       0.00560000
    97  H          0.09100000       0.74780000       0.48200000
    98  H          0.90900000       0.24780000       0.01800000
    99  H          0.90900000       0.25220000       0.51800000
   100  H          0.09100000       0.75220000       0.98200000
   101  C          0.18152000       0.77994000       0.33313000
   102  C          0.81848000       0.27994000       0.16687000
   103  C          0.81848000       0.22006000       0.66687000
   104  C          0.18152000       0.72006000       0.83313000
   105  H          0.23370000       0.74260000       0.37640000
   106  H          0.76630000       0.24260000       0.12360000
   107  H          0.76630000       0.25740000       0.62360000
   108  H          0.23370000       0.75740000       0.87640000
   109  H          0.18440000       0.87920000       0.33400000
   110  H          0.81560000       0.37920000       0.16600000
   111  H          0.81560000       0.12080000       0.66600000
   112  H          0.18440000       0.62080000       0.83400000
   113  H          0.16900000       0.74710000       0.26930000
   114  H          0.83100000       0.24710000       0.23070000
   115  H          0.83100000       0.25290000       0.73070000
   116  H          0.16900000       0.75290000       0.76930000
   117  S          0.57263500       0.72417900       0.19468600
   118  S          0.42736500       0.22417900       0.30531400
   119  S          0.42736500       0.27582100       0.80531400
   120  S          0.57263500       0.77582100       0.69468600
   121  S          0.53056500       0.73450100       0.37264600
   122  S          0.46943500       0.23450100       0.12735400
   123  S          0.46943500       0.26549900       0.62735400
   124  S          0.53056500       0.76549900       0.87264600
   125  P          0.62531500       0.67272100       0.33730700
   126  P          0.37468500       0.17272100       0.16269300
   127  P          0.37468500       0.32727900       0.66269300
   128  P          0.62531500       0.82727900       0.83730700
   129  C          0.47760190       0.63813000       0.14912000
   130  C          0.52239810       0.13813000       0.35088000
   131  C          0.52239810       0.36187000       0.85088000
   132  C          0.47760190       0.86187000       0.64912000
   133  C          0.45242000       0.60463000       0.05572000
   134  C          0.54758000       0.10463000       0.44428000
   135  C          0.54758000       0.39537000       0.94428000
   136  C          0.45242000       0.89537000       0.55572000
   137  H          0.48720000       0.62220000       0.02490000
   138  H          0.51280000       0.12220000       0.47510000
   139  H          0.51280000       0.37780000       0.97510000
   140  H          0.48720000       0.87780000       0.52490000
   141  C          0.37652000       0.54524000       0.00532000
   142  C          0.62348000       0.04524000       0.49468000
   143  C          0.62348000       0.45476000      -0.00532000
   144  C          0.37652000       0.95476000       0.50532000
   145  H          0.35970000       0.52440000       0.94060000
   146  H          0.64030000       0.02440000       0.55940000
   147  H          0.64030000       0.47560000       0.05940000
   148  H          0.35970000       0.97560000       0.44060000
   149  C          0.32732000       0.51763000       0.04922000
   150  C          0.67268000       0.01763000       0.45078000
   151  C          0.67268000       0.48237000       0.95078000
   152  C          0.32732000       0.98237000       0.54922000
   153  H          0.27570000       0.47740000       0.01460000
   154  H          0.72430000       0.97740000       0.48540000
   155  H          0.72430000       0.52260000       0.98540000
   156  H          0.27570000       0.02260000       0.51460000
   157  C          0.35095190       0.54713000       0.14552000
   158  C          0.64904810       0.04713000       0.35448000
   159  C          0.64904810       0.45287000       0.85448000
   160  C          0.35095190       0.95287000       0.64552000
   161  C          0.29772000       0.51544000       0.18883000
   162  C          0.70228000       0.01544000       0.31117000
   163  C          0.70228000       0.48456000       0.81117000
   164  C          0.29772000       0.98456000       0.68883000
   165  H          0.24680000       0.47410000       0.15280000
   166  H          0.75320000       0.97410000       0.34720000
   167  H          0.75320000       0.52590000       0.84720000
   168  H          0.24680000       0.02590000       0.65280000
   169  C          0.31822000       0.54314000       0.28113000
   170  C          0.68178000       0.04314000       0.21887000
   171  C          0.68178000       0.45686000       0.71887000
   172  C          0.31822000       0.95686000       0.78113000
   173  H          0.28220000       0.52060000       0.30940000
   174  H          0.71780000       0.02060000       0.19060000
   175  H          0.71780000       0.47940000       0.69060000
   176  H          0.28220000       0.97940000       0.80940000
   177  C          0.39252000       0.60464000       0.33373000
   178  C          0.60748000       0.10464000       0.16627000
   179  C          0.60748000       0.39536000       0.66627000
   180  C          0.39252000       0.89536000       0.83373000
   181  H          0.40680000       0.62230000       0.39840000
   182  H          0.59320000       0.12230000       0.10160000
   183  H          0.59320000       0.37770000       0.60160000
   184  H          0.40680000       0.87770000       0.89840000
   185  C          0.44569190       0.64033000       0.29502000
   186  C          0.55430810       0.14033000       0.20498000
   187  C          0.55430810       0.35967000       0.70498000
   188  C          0.44569190       0.85967000       0.79502000
   189  C          0.42769180       0.61113000       0.19842000
   190  C          0.57230820       0.11113000       0.30158000
   191  C          0.57230820       0.38887000       0.80158000
   192  C          0.42769180       0.88887000       0.69842000
   193  C          0.62232000       0.48503000       0.33982000
   194  C          0.37768000       0.98503000       0.16018000
   195  C          0.37768000       0.51497000       0.66018000
   196  C          0.62232000       0.01497000       0.83982000
   197  H          0.56700000       0.45220000       0.29710000
   198  H          0.43300000       0.95220000       0.20290000
   199  H          0.43300000       0.54780000       0.70290000
   200  H          0.56700000       0.04780000       0.79710000
   201  C          0.68552000       0.43004000       0.30693000
   202  C          0.31448000       0.93004000       0.19307000
   203  C          0.31448000       0.56996000       0.69307000
   204  C          0.68552000       0.06996000       0.80693000
   205  H          0.68590000       0.33070000       0.30960000
   206  H          0.31410000       0.83070000       0.19040000
   207  H          0.31410000       0.66930000       0.69040000
   208  H          0.68590000       0.16930000       0.80960000
   209  H          0.73930000       0.46460000       0.34790000
   210  H          0.26070000       0.96460000       0.15210000
   211  H          0.26070000       0.53540000       0.65210000
   212  H          0.73930000       0.03540000       0.84790000
   213  H          0.67190000       0.45930000       0.24210000
   214  H          0.32810000       0.95930000       0.25790000
   215  H          0.32810000       0.54070000       0.75790000
   216  H          0.67190000       0.04070000       0.74210000
   217  C          0.64172000       0.44084000       0.44063000
   218  C          0.35828000       0.94084000       0.05937000
   219  C          0.35828000       0.55916000       0.55937000
   220  C          0.64172000       0.05916000       0.94063000
   221  H          0.64610000       0.34180000       0.44500000
   222  H          0.35390000       0.84180000       0.05500000
   223  H          0.35390000       0.65820000       0.55500000
   224  H          0.64610000       0.15820000       0.94500000
   225  H          0.59810000       0.47080000       0.45850000
   226  H          0.40190000       0.97080000       0.04150000
   227  H          0.40190000       0.52920000       0.54150000
   228  H          0.59810000       0.02920000       0.95850000
   229  H          0.69320000       0.48150000       0.48310000
   230  H          0.30680000       0.98150000       0.01690000
   231  H          0.30680000       0.51850000       0.51690000
   232  H          0.69320000       0.01850000       0.98310000
