data_MIQXOC
_symmetry_space_group_name_H-M    'P1'
_symmetry_Int_Tables_number       1
loop_
_symmetry_equiv_pos_site_id
_symmetry_equiv_pos_as_xyz
1 x,y,z
_cell_length_a                   8.6823
_cell_length_b                   12.0824
_cell_length_c                   12.6715
_cell_angle_alpha                104.5806
_cell_angle_beta                 105.7067
_cell_angle_gamma                91.9143
loop_
_atom_site_label
_atom_site_type_symbol
_atom_site_fract_x
_atom_site_fract_y
_atom_site_fract_z
     1  S          0.05958600       0.36402500       0.29460400
     2  S          0.94041400       0.63597500       0.70539600
     3  S          0.27948600       0.57722400       0.29135400
     4  S          0.72051400       0.42277600       0.70864600
     5  P          0.08501600       0.46006400       0.18298400
     6  P          0.91498400       0.53993600       0.81701600
     7  C          0.25322000       0.32136160       0.34652140
     8  C          0.74678000       0.67863840       0.65347860
     9  C          0.24732000       0.21995170       0.37665150
    10  C          0.75268000       0.78004830       0.62334850
    11  H          0.14550000       0.17980000       0.36500000
    12  H          0.85450000       0.82020000       0.63500000
    13  C          0.38752000       0.17408170       0.42413150
    14  C          0.61248000       0.82591830       0.57586850
    15  H          0.38040000       0.10550000       0.44710000
    16  H          0.61960000       0.89450000       0.55290000
    17  C          0.53292000       0.22831170       0.43695150
    18  C          0.46708000       0.77168830       0.56304850
    19  H          0.62780000       0.19670000       0.46820000
    20  H          0.37220000       0.80330000       0.53180000
    21  C          0.54592000       0.33113160       0.40474140
    22  C          0.45408000       0.66886840       0.59525860
    23  C          0.69962000       0.38341170       0.41735150
    24  C          0.30038000       0.61658830       0.58264850
    25  H          0.79230000       0.34870000       0.44710000
    26  H          0.20770000       0.65130000       0.55290000
    27  C          0.71802000       0.48244170       0.38775150
    28  C          0.28198000       0.51755830       0.61224850
    29  H          0.82240000       0.51620000       0.39590000
    30  H          0.17760000       0.48380000       0.60410000
    31  C          0.58212000       0.53432170       0.34517150
    32  C          0.41788000       0.46567830       0.65482850
    33  H          0.59550000       0.60320000       0.32380000
    34  H          0.40450000       0.39680000       0.67620000
    35  C          0.43032000       0.48861160       0.33344140
    36  C          0.56968000       0.51138840       0.66655860
    37  C          0.40462000       0.38255160       0.36025140
    38  C          0.59538000       0.61744840       0.63974860
    39  C          0.17512000       0.36121160       0.08464150
    40  C          0.82488000       0.63878840       0.91535850
    41  H          0.25420000       0.31940000       0.12910000
    42  H          0.74580000       0.68060000       0.87090000
    43  C          0.26162000       0.42694170       0.02571160
    44  C          0.73838000       0.57305830       0.97428840
    45  H          0.18940000       0.47740000      -0.00820000
    46  H          0.81060000       0.52260000       0.00820000
    47  H          0.29350000       0.37230000       0.96590000
    48  H          0.70650000       0.62770000       0.03410000
    49  H          0.35770000       0.47340000       0.08150000
    50  H          0.64230000       0.52660000       0.91850000
    51  C          0.03882000       0.27389170      -0.00176150
    52  C          0.96118000       0.72610830       0.00176150
    53  H          0.08450000       0.21250000       0.95340000
    54  H          0.91550000       0.78750000       0.04660000
    55  H          0.96880000       0.31250000       0.94740000
    56  H          0.03120000       0.68750000       0.05260000
    57  H          0.97590000       0.24080000       0.03870000
    58  H          0.02410000       0.75920000       0.96130000
    59  S          0.20271600       0.93241600       0.72604400
    60  S          0.79728400       0.06758400       0.27395600
    61  S          0.43487600       0.13135400       0.70934400
    62  S          0.56512400       0.86864600       0.29065600
    63  P          0.19767600       0.05443500       0.63487400
    64  P          0.80232400       0.94556500       0.36512600
    65  C          0.26522000       0.01349160       0.87081150
    66  C          0.73478000      -0.01349160       0.12918850
    67  C          0.19372000       0.97079830       0.93797160
    68  C          0.80628000       0.02920170       0.06202840
    69  H          0.10820000       0.91040000       0.90320000
    70  H          0.89180000       0.08960000       0.09680000
    71  C          0.24272000       0.01352170       0.05659160
    72  C          0.75728000      -0.01352170       0.94340840
    73  H          0.19270000       0.98140000       0.10170000
    74  H          0.80730000       0.01860000       0.89830000
    75  C          0.36252000       0.10126170       0.10653160
    76  C          0.63748000       0.89873830       0.89346840
    77  H          0.39740000       0.12940000       0.18720000
    78  H          0.60260000       0.87060000       0.81280000
    79  C          0.43602000       0.15147160       0.04081150
    80  C          0.56398000       0.84852840       0.95918850
    81  C          0.55852000       0.24447160       0.09642150
    82  C          0.44148000       0.75552840       0.90357850
    83  H          0.59090000       0.27090000       0.17720000
    84  H          0.40910000       0.72910000       0.82280000
    85  C          0.63002000       0.29610170       0.03627160
    86  C          0.36998000       0.70389830       0.96372840
    87  H          0.71300000       0.35770000       0.07480000
    88  H          0.28700000       0.64230000       0.92520000
    89  C          0.58192000       0.25877170       0.91720160
    90  C          0.41808000       0.74122830       0.08279840
    91  H          0.63030000       0.29730000       0.87550000
    92  H          0.36970000       0.70270000       0.12450000
    93  C          0.46562000       0.16705160       0.85921150
    94  C          0.53438000       0.83294840       0.14078850
    95  C          0.38792000       0.10945160       0.91915150
    96  C          0.61208000       0.89054840       0.08084850
    97  C          0.07942000       0.16620170       0.69456150
    98  C          0.92058000       0.83379830       0.30543850
    99  H          0.14260000       0.20830000       0.77410000
   100  H          0.85740000       0.79170000       0.22590000
   101  C          0.91788000       0.11457180       0.69599160
   102  C          0.08212000       0.88542820       0.30400840
   103  H          0.85910000       0.06780000       0.61930000
   104  H          0.14090000       0.93220000       0.38070000
   105  H          0.85500000       0.17650000       0.72090000
   106  H          0.14500000       0.82350000       0.27910000
   107  H          0.93570000       0.06610000       0.74880000
   108  H          0.06430000       0.93390000       0.25120000
   109  C          0.05762000       0.24970180       0.62044170
   110  C          0.94238000       0.75029820       0.37955830
   111  H          0.00780000       0.31590000       0.65430000
   112  H         -0.00780000       0.68410000       0.34570000
   113  H         -0.01190000       0.21070000       0.54390000
   114  H          0.01190000       0.78930000       0.45610000
   115  H          0.16270000       0.27610000       0.61560000
   116  H          0.83730000       0.72390000       0.38440000
