data_MIQXOC01
_symmetry_space_group_name_H-M    'P1'
_symmetry_Int_Tables_number       1
loop_
_symmetry_equiv_pos_site_id
_symmetry_equiv_pos_as_xyz
1 x,y,z
_cell_length_a                   16.4065
_cell_length_b                   10.0062
_cell_length_c                   16.7115
_cell_angle_alpha                90.0
_cell_angle_beta                 111.4957
_cell_angle_gamma                90.0
loop_
_atom_site_label
_atom_site_type_symbol
_atom_site_fract_x
_atom_site_fract_y
_atom_site_fract_z
     1  S          0.06692000       0.77153000       0.43102000
     2  S          0.93308000       0.27153000       0.56898000
     3  S          0.87762000       0.78473000       0.43852000
     4  S          0.12238000       0.28473000       0.56148000
     5  P          0.94042000       0.83303000       0.35432000
     6  P          0.05958000       0.33303000       0.64568000
     7  C          0.09199000       0.86451000       0.52737000
     8  C          0.90801000       0.36451000       0.47263000
     9  C          0.17748000       0.90261100       0.56358000
    10  C          0.82252000       0.40261100       0.43642000
    11  H          0.21530000       0.88950000       0.53270000
    12  H          0.78470000       0.38950000       0.46730000
    13  C          0.21021000       0.96061400       0.64539000
    14  C          0.78979000       0.46061400       0.35461000
    15  H          0.27030000       0.98470000       0.67030000
    16  H          0.72970000       0.48470000       0.32970000
    17  C          0.15731000       0.98211100       0.68838000
    18  C          0.84269000       0.48211100       0.31162000
    19  H          0.18080000       0.02050000       0.74410000
    20  H          0.81920000       0.52050000       0.25590000
    21  C          0.06761000       0.94981100       0.65368000
    22  C          0.93239000       0.44981100       0.34632000
    23  C          0.01371100       0.97561200       0.70138000
    24  C          0.98628900       0.47561200       0.29862000
    25  H          0.03860000       0.01370000       0.75710000
    26  H          0.96140000       0.51370000       0.24290000
    27  C          0.92861200       0.94751300       0.66919000
    28  C          0.07138800       0.44751300       0.33081000
    29  H          0.89370000       0.96190000       0.70280000
    30  H          0.10630000       0.46190000       0.29720000
    31  C          0.89051000       0.89621200       0.58529000
    32  C          0.10949000       0.39621200       0.41471000
    33  H          0.82900000       0.88170000       0.56170000
    34  H          0.17100000       0.38170000       0.43830000
    35  C          0.93818000       0.86731100       0.53737000
    36  C          0.06182000       0.36731100       0.46263000
    37  C          0.03078000       0.89101000       0.56807000
    38  C          0.96922000       0.39101000       0.43193000
    39  C          0.94688000       0.01991200       0.35788000
    40  C          0.05312000       0.51991200       0.64212000
    41  H          0.96780000       0.05050000       0.41900000
    42  H          0.03220000       0.55050000       0.58100000
    43  C          0.01091200       0.06211300       0.31801000
    44  C         -0.01091200       0.56211300       0.68199000
    45  H          0.02040000       0.15880000       0.32500000
    46  H          0.97960000       0.65880000       0.67500000
    47  H          0.98760000       0.03980000       0.25670000
    48  H          0.01240000       0.53980000       0.74330000
    49  H          0.06660000       0.01550000       0.34640000
    50  H          0.93340000       0.51550000       0.65360000
    51  C          0.85451100       0.07211500       0.31051000
    52  C          0.14548900       0.57211500       0.68949000
    53  H          0.82920000       0.02740000       0.25460000
    54  H          0.17080000       0.52740000       0.74540000
    55  H          0.85660000       0.16860000       0.30170000
    56  H          0.14340000       0.66860000       0.69830000
    57  H          0.81830000       0.05380000       0.34460000
    58  H          0.18170000       0.55380000       0.65540000
    59  S          0.57632000       0.40243000       0.62662000
    60  S          0.42368000       0.90243000       0.37338000
    61  S          0.55002000       0.39273000       0.42992000
    62  S          0.44998000       0.89273000       0.57008000
    63  P          0.64452000       0.45113000       0.54692000
    64  P          0.35548000       0.95113000       0.45308000
    65  C          0.47558000       0.48921000       0.58258000
    66  C          0.52442000      -0.01079000       0.41742000
    67  C          0.44189000       0.52581200       0.64208000
    68  C          0.55811000       0.02581200       0.35792000
    69  H          0.47660000       0.51430000       0.70120000
    70  H          0.52340000       0.01430000       0.29880000
    71  C          0.35798000       0.57971200       0.61998000
    72  C          0.64202000       0.07971200       0.38002000
    73  H          0.33540000       0.60010000       0.66330000
    74  H          0.66460000       0.10010000       0.33670000
    75  C          0.30899000       0.60281100       0.53639000
    76  C          0.69101000       0.10281100       0.46361000
    77  H          0.25180000       0.63960000       0.52090000
    78  H          0.74820000       0.13960000       0.47910000
    79  C          0.34248000       0.57231000       0.47237000
    80  C          0.65752000       0.07231000       0.52763000
    81  C          0.29219000       0.60321100       0.38748000
    82  C          0.70781000       0.10321100       0.61252000
    83  H          0.23590000       0.64190000       0.37450000
    84  H          0.76410000       0.14190000       0.62550000
    85  C          0.32129000       0.57931200       0.32221000
    86  C          0.67871000       0.07931200       0.67779000
    87  H          0.28680000       0.60370000       0.26470000
    88  H          0.71320000       0.10370000       0.73530000
    89  C          0.40419000       0.51721200       0.34208000
    90  C          0.59581000       0.01721200       0.65792000
    91  H          0.42500000       0.49850000       0.29710000
    92  H          0.57500000      -0.00150000       0.70290000
    93  C          0.45319000       0.48481000       0.42308000
    94  C          0.54681000       0.98481000       0.57692000
    95  C          0.42668000       0.51091000       0.49437000
    96  C          0.57332000       0.01091000       0.50563000
    97  C          0.64028000       0.63761200       0.54408000
    98  C          0.35972000       0.13761200       0.45592000
    99  H          0.57900000       0.66810000       0.53270000
   100  H          0.42100000       0.16810000       0.46730000
   101  C          0.69921000       0.68631400       0.62999000
   102  C          0.30079000       0.18631400       0.37001000
   103  H          0.70150000       0.78420000       0.62950000
   104  H          0.29850000       0.28420000       0.37050000
   105  H          0.75820000       0.65020000       0.64300000
   106  H          0.24180000       0.15020000       0.35700000
   107  H          0.67680000       0.65670000       0.67380000
   108  H          0.32320000       0.15670000       0.32620000
   109  C          0.66791100       0.68301300       0.47151100
   110  C          0.33208900       0.18301300       0.52848900
   111  H          0.72470000       0.64320000       0.47860000
   112  H          0.27530000       0.14320000       0.52140000
   113  H          0.67290000       0.78060000       0.47250000
   114  H          0.32710000       0.28060000       0.52750000
   115  H          0.62410000       0.65450000       0.41640000
   116  H          0.37590000       0.15450000       0.58360000
   117  S          0.57522000       0.52103000       0.94642000
   118  S          0.42478000       0.02103000       0.05358000
   119  S          0.38792000       0.53673000       0.95542000
   120  S          0.61208000       0.03673000       0.04458000
   121  P          0.44912000       0.58073000       0.86902000
   122  P          0.55088000       0.08073000       0.13098000
   123  C          0.60108000       0.62091100       0.04247000
   124  C          0.39892000       0.12091100       0.95753000
   125  C          0.68609000       0.65741300       0.07579000
   126  C          0.31391000       0.15741300       0.92421000
   127  H          0.72380000       0.63880000       0.04560000
   128  H          0.27620000       0.13880000       0.95440000
   129  C          0.71861100       0.72471400       0.15711100
   130  C          0.28138900       0.22471400       0.84288900
   131  H          0.77810000       0.75230000       0.18120000
   132  H          0.22190000       0.25230000       0.81880000
   133  C          0.66451100       0.74791300       0.19869000
   134  C          0.33548900       0.24791300       0.80131000
   135  H          0.68750000       0.79000000       0.25330000
   136  H          0.31250000       0.29000000       0.74670000
   137  C          0.57619000       0.71391200       0.16628000
   138  C          0.42381000       0.21391200       0.83372000
   139  C          0.52351400       0.74271300       0.21079000
   140  C          0.47648600       0.24271300       0.78921000
   141  H          0.54930000       0.78370000       0.26550000
   142  H          0.45070000       0.28370000       0.73450000
   143  C          0.43841400       0.71681300       0.18191000
   144  C          0.56158600       0.21681300       0.81809000
   145  H          0.40410000       0.73650000       0.21560000
   146  H          0.59590000       0.23650000       0.78440000
   147  C          0.39971000       0.65771300       0.09779000
   148  C          0.60029000       0.15771300       0.90221000
   149  H          0.33820000       0.64330000       0.07410000
   150  H          0.66180000       0.14330000       0.92590000
   151  C          0.44828000       0.62291100       0.05207000
   152  C          0.55172000       0.12291100       0.94793000
   153  C          0.53888000       0.64891100       0.08176000
   154  C          0.46112000       0.14891100       0.91824000
   155  C          0.45699000       0.76631200       0.87208000
   156  C          0.54301000       0.26631200       0.12792000
   157  H          0.48170000       0.79760000       0.93300000
   158  H          0.51830000       0.29760000       0.06700000
   159  C          0.51711500       0.80511400       0.82641100
   160  C          0.48288500       0.30511400       0.17358900
   161  H          0.51850000       0.90270000       0.82190000
   162  H          0.48150000       0.40270000       0.17810000
   163  H          0.49590000       0.76600000       0.76860000
   164  H          0.50410000       0.26600000       0.23140000
   165  H          0.57630000       0.77200000       0.85890000
   166  H          0.42370000       0.27200000       0.14110000
   167  C          0.36271300       0.81681400       0.82901100
   168  C          0.63728700       0.31681400       0.17098900
   169  H          0.33920000       0.78800000       0.76880000
   170  H          0.66080000       0.28800000       0.23120000
   171  H          0.36210000       0.91460000       0.83170000
   172  H          0.63790000       0.41460000       0.16830000
   173  H          0.32650000       0.78000000       0.85910000
   174  H          0.67350000       0.28000000       0.14090000
   175  S          0.94943000       0.65184000       0.89472000
   176  S          0.05057000       0.15184000       0.10528000
   177  S          0.94332000       0.64053000       0.07992000
   178  S          0.05668000       0.14053000       0.92008000
   179  P          0.86282000       0.69743000       0.95552000
   180  P          0.13718000       0.19743000       0.04448000
   181  C          0.04849000       0.74261000       0.95299000
   182  C          0.95151000       0.24261000       0.04701000
   183  C          0.09381100       0.77541300       0.90311000
   184  C          0.90618900       0.27541300       0.09689000
   185  H          0.07030000       0.75420000       0.84350000
   186  H          0.92970000       0.25420000       0.15650000
   187  C          0.17571200       0.84101400       0.93751300
   188  C          0.82428800       0.34101400       0.06248700
   189  H          0.20670000       0.86600000       0.90170000
   190  H          0.79330000       0.36600000       0.09830000
   191  C          0.20901100       0.86741200       0.02391400
   192  C          0.79098900       0.36741200       0.97608600
   193  H          0.26560000       0.90630000       0.04830000
   194  H          0.73440000       0.40630000       0.95170000
   195  C          0.16328000       0.83951200       0.07709000
   196  C          0.83672000       0.33951200       0.92291000
   197  C          0.20051100       0.87041300       0.16321100
   198  C          0.79948900       0.37041300       0.83678900
   199  H          0.25660000       0.91140000       0.18470000
   200  H          0.74340000       0.41140000       0.81530000
   201  C          0.15951200       0.84411400       0.21721100
   202  C          0.84048800       0.34411400       0.78278900
   203  H          0.18490000       0.87070000       0.27580000
   204  H          0.81510000       0.37070000       0.72420000
   205  C          0.07751000       0.77601200       0.18708000
   206  C          0.92249000       0.27601200       0.81292000
   207  H          0.04860000       0.75670000       0.22560000
   208  H          0.95140000       0.25670000       0.77440000
   209  C          0.03998000       0.73811100       0.10208000
   210  C          0.96002000       0.23811100       0.89792000
   211  C          0.08007000       0.76661100       0.04278000
   212  C          0.91993000       0.26661100       0.95722000
   213  C          0.86569000       0.88591300       0.96158000
   214  C          0.13431000       0.38591300       0.03842000
   215  H          0.92740000       0.91900000       0.98380000
   216  H          0.07260000       0.41900000       0.01620000
   217  C          0.81771100       0.93291500       0.86981000
   218  C          0.18228900       0.43291500       0.13019000
   219  H          0.81500000       0.03070000       0.86860000
   220  H          0.18500000       0.53070000       0.13140000
   221  H          0.75820000       0.89640000       0.84820000
   222  H          0.24180000       0.39640000       0.15180000
   223  H          0.84910000       0.90190000       0.83340000
   224  H          0.15090000       0.40190000       0.16660000
   225  C          0.82061200       0.92621400       0.01851400
   226  C          0.17938800       0.42621400       0.98148600
   227  H          0.76040000       0.89240000      -0.00400000
   228  H          0.23960000       0.39240000       0.00400000
   229  H          0.81980000       0.02400000       0.02180000
   230  H          0.18020000       0.52400000       0.97820000
   231  H          0.85150000       0.88940000       0.07610000
   232  H          0.14850000       0.38940000       0.92390000
