data_MONRAI
_symmetry_space_group_name_H-M    'P1'
_symmetry_Int_Tables_number       1
loop_
_symmetry_equiv_pos_site_id
_symmetry_equiv_pos_as_xyz
1 x,y,z
_cell_length_a                   8.5715
_cell_length_b                   10.4655
_cell_length_c                   9.3684
_cell_angle_alpha                90.0
_cell_angle_beta                 97.0752
_cell_angle_gamma                90.0
loop_
_atom_site_label
_atom_site_type_symbol
_atom_site_fract_x
_atom_site_fract_y
_atom_site_fract_z
     1  O          0.16430400       0.00890300       0.62620300
     2  O          0.83569600       0.50890300       0.87379700
     3  O          0.83569600      -0.00890300       0.37379700
     4  O          0.16430400       0.49109700       0.12620300
     5  O          0.15150600       0.85619600       0.79200400
     6  O          0.84849400       0.35619600       0.70799600
     7  O          0.84849400       0.14380400       0.20799600
     8  O          0.15150600       0.64380400       0.29200400
     9  C          0.03940600       0.06380400       0.82250500
    10  C          0.96059400       0.56380400       0.67749500
    11  C          0.96059400       0.93619600       0.17749500
    12  C          0.03940600       0.43619600       0.32250500
    13  C          0.12290600       0.96399600       0.75100500
    14  C          0.87709400       0.46399600       0.74899500
    15  C          0.87709400       0.03600400       0.24899500
    16  C          0.12290600       0.53600400       0.25100500
    17  C         -0.00960600       0.05470400       0.95160500
    18  C          0.00960600       0.55470400       0.54839500
    19  C          0.00960600       0.94529600       0.04839500
    20  C         -0.00960600       0.44529600       0.45160500
    21  C          0.29320500      -0.01330400       0.41360500
    22  C          0.70679500       0.48669600       0.08639500
    23  C          0.70679500       0.01330400       0.58639500
    24  C          0.29320500       0.51330400       0.91360500
    25  C          0.26700600       0.11540500       0.38490500
    26  C          0.73299400       0.61540500       0.11509500
    27  C          0.73299400       0.88459500       0.61509500
    28  C          0.26700600       0.38459500       0.88490500
    29  C          0.36590700       0.91379500       0.31710600
    30  C          0.63409300       0.41379500       0.18289400
    31  C          0.63409300       0.08620500       0.68289400
    32  C          0.36590700       0.58620500       0.81710600
    33  C          0.38320700       0.09670600       0.16600600
    34  C          0.61679300       0.59670600       0.33399400
    35  C          0.61679300       0.90329400       0.83399400
    36  C          0.38320700       0.40329400       0.66600600
    37  C          0.24620700       0.92039500       0.54350600
    38  C          0.75379300       0.42039500       0.95649400
    39  C          0.75379300       0.07960500       0.45649400
    40  C          0.24620700       0.57960500       0.04350600
    41  C          0.41070800       0.96889400       0.19460700
    42  C          0.58929200       0.46889400       0.30539300
    43  C          0.58929200       0.03110600       0.80539300
    44  C          0.41070800       0.53110600       0.69460700
    45  C          0.31250700       0.17020600       0.26130600
    46  C          0.68749300       0.67020600       0.23869400
    47  C          0.68749300       0.82979400       0.73869400
    48  C          0.31250700       0.32979400       0.76130600
    49  H          0.01866000       0.14126000       0.76746000
    50  H          0.98134000       0.64126000       0.73254000
    51  H          0.98134000       0.85874000       0.23254000
    52  H          0.01866000       0.35874000       0.26746000
    53  H          0.93243000       0.13116000       0.98266000
    54  H          0.06757000       0.63116000       0.51734000
    55  H          0.06757000       0.86884000       0.01734000
    56  H          0.93243000       0.36884000       0.48266000
    57  H          0.21867000       0.16386000       0.44806000
    58  H          0.78133000       0.66386000       0.05194000
    59  H          0.78133000       0.83614000       0.55194000
    60  H          0.21867000       0.33614000       0.94806000
    61  H          0.38137000       0.82773000       0.33946000
    62  H          0.61863000       0.32773000       0.16054000
    63  H          0.61863000       0.17227000       0.66054000
    64  H          0.38137000       0.67227000       0.83946000
    65  H          0.41289000       0.13647000       0.08048000
    66  H          0.58711000       0.63647000       0.41952000
    67  H          0.58711000       0.86353000       0.91952000
    68  H          0.41289000       0.36353000       0.58048000
    69  H          0.17048000       0.84943000       0.51636000
    70  H          0.82952000       0.34943000       0.98364000
    71  H          0.82952000       0.15057000       0.48364000
    72  H          0.17048000       0.65057000       0.01636000
    73  H          0.34199000       0.88963000       0.61027000
    74  H          0.65801000       0.38963000       0.88973000
    75  H          0.65801000       0.11037000       0.38973000
    76  H          0.34199000       0.61037000       0.11027000
    77  H          0.45708000       0.91663000       0.12658000
    78  H          0.54292000       0.41663000       0.37342000
    79  H          0.54292000       0.08337000       0.87342000
    80  H          0.45708000       0.58337000       0.62658000
    81  H          0.29377000       0.26497000       0.24496000
    82  H          0.70623000       0.76497000       0.25504000
    83  H          0.70623000       0.73503000       0.75504000
    84  H          0.29377000       0.23503000       0.74496000
