data_MONRAI08
_symmetry_space_group_name_H-M    'P1'
_symmetry_Int_Tables_number       1
loop_
_symmetry_equiv_pos_site_id
_symmetry_equiv_pos_as_xyz
1 x,y,z
_cell_length_a                   5.762514
_cell_length_b                   20.4035
_cell_length_c                   7.228518
_cell_angle_alpha                90.0
_cell_angle_beta                 97.97511
_cell_angle_gamma                90.0
loop_
_atom_site_label
_atom_site_type_symbol
_atom_site_fract_x
_atom_site_fract_y
_atom_site_fract_z
     1  O          0.16175180       0.52268500       0.25831140
     2  O          0.33824820       0.02268500       0.24168860
     3  O          0.83824820       0.47731500       0.74168860
     4  O          0.66175180       0.97731500       0.75831140
     5  O          0.37946160       0.58887500       0.46076120
     6  O          0.12053840       0.08887500       0.03923880
     7  O          0.62053840       0.41112500       0.53923880
     8  O          0.87946160       0.91112500       0.96076120
     9  C          0.59022000       0.51621700       0.06300180
    10  C          0.90978000       0.01621700       0.43699820
    11  C          0.40978000       0.48378300       0.93699820
    12  C          0.09022000       0.98378300       0.56300180
    13  H          0.73960000       0.51700000       0.02820000
    14  H          0.76040000       0.01700000       0.47180000
    15  H          0.26040000       0.48300000       0.97180000
    16  H          0.23960000       0.98300000       0.52820000
    17  C          0.56382000       0.54517700       0.22497190
    18  C          0.93618000       0.04517700       0.27502810
    19  C          0.43618000       0.45482300       0.77502810
    20  C          0.06382000       0.95482300       0.72497190
    21  H          0.69630000       0.56460000       0.29080000
    22  H          0.80370000       0.06460000       0.20920000
    23  H          0.30370000       0.43540000       0.70920000
    24  H          0.19630000       0.93540000       0.79080000
    25  C          0.34602000       0.54937600       0.30924170
    26  C          0.15398000       0.04937600       0.19075830
    27  C          0.65398000       0.45062400       0.69075830
    28  C          0.84602000       0.95062400       0.80924170
    29  C          0.17832000       0.59941700       0.55591180
    30  C          0.32168000       0.09941700       0.94408820
    31  C          0.82168000       0.40058300       0.44408820
    32  C          0.67832000       0.90058300       0.05591180
    33  H          0.11370000       0.55760000       0.58730000
    34  H          0.38630000       0.05760000       0.91270000
    35  H          0.88630000       0.44240000       0.41270000
    36  H          0.61370000       0.94240000       0.08730000
    37  H          0.05820000       0.62310000       0.47520000
    38  H          0.44180000       0.12310000       0.02480000
    39  H          0.94180000       0.37690000       0.52480000
    40  H          0.55820000       0.87690000       0.97520000
    41  C          0.25282000       0.63821600       0.73087170
    42  C          0.24718000       0.13821600       0.76912830
    43  C          0.74718000       0.36178400       0.26912830
    44  C          0.75282000       0.86178400       0.23087170
    45  C          0.45563000       0.67518700       0.75795190
    46  C          0.04437000       0.17518700       0.74204810
    47  C          0.54437000       0.32481300       0.24204810
    48  C          0.95563000       0.82481300       0.25795190
    49  H          0.55380000       0.67600000       0.66620000
    50  H          0.94620000       0.17600000       0.83380000
    51  H          0.44620000       0.32400000       0.33380000
    52  H          0.05380000       0.82400000       0.16620000
    53  C          0.51393000       0.71103700       0.92012000
    54  C         -0.01393000       0.21103700       0.57988000
    55  C          0.48607000       0.28896300       0.07988000
    56  C          0.01393000       0.78896300       0.42012000
    57  H          0.65160000       0.73540000       0.93700000
    58  H          0.84840000       0.23540000       0.56300000
    59  H          0.34840000       0.26460000       0.06300000
    60  H          0.15160000       0.76460000       0.43700000
    61  C          0.36953000       0.71088700       0.05682000
    62  C          0.13047000       0.21088700       0.44318000
    63  C          0.63047000       0.28911300       0.94318000
    64  C          0.86953000       0.78911300       0.55682000
    65  H          0.40900000       0.73500000       0.16580000
    66  H          0.09100000       0.23500000       0.33420000
    67  H          0.59100000       0.26500000       0.83420000
    68  H          0.90900000       0.76500000       0.66580000
    69  C          0.16593000       0.67464700       0.03032000
    70  C          0.33407000       0.17464700       0.46968000
    71  C          0.83407000       0.32535300       0.96968000
    72  C          0.66593000       0.82535300       0.53032000
    73  H          0.06670000       0.67470000       0.12140000
    74  H          0.43330000       0.17470000       0.37860000
    75  H          0.93330000       0.32530000       0.87860000
    76  H          0.56670000       0.82530000       0.62140000
    77  C          0.10793000       0.63812700       0.86935180
    78  C          0.39207000       0.13812700       0.63064820
    79  C          0.89207000       0.36187300       0.13064820
    80  C          0.60793000       0.86187300       0.36935180
    81  H          0.97110000       0.61340000       0.85370000
    82  H          0.52890000       0.11340000       0.64630000
    83  H          0.02890000       0.38660000       0.14630000
    84  H          0.47110000       0.88660000       0.35370000
