data_MONRAI02
_symmetry_space_group_name_H-M    'P1'
_symmetry_Int_Tables_number       1
loop_
_symmetry_equiv_pos_site_id
_symmetry_equiv_pos_as_xyz
1 x,y,z
_cell_length_a                   10.3324
_cell_length_b                   5.6822
_cell_length_c                   14.7917
_cell_angle_alpha                90.0
_cell_angle_beta                 105.864
_cell_angle_gamma                90.0
loop_
_atom_site_label
_atom_site_type_symbol
_atom_site_fract_x
_atom_site_fract_y
_atom_site_fract_z
     1  O          0.44832140       0.13612000       0.12236100
     2  O          0.55167860       0.63612000       0.37763900
     3  O          0.55167860       0.86388000       0.87763900
     4  O          0.44832140       0.36388000       0.62236100
     5  O          0.29586110       0.32180180       0.17657800
     6  O          0.70413890       0.82180180       0.32342200
     7  O          0.70413890       0.67819820       0.82342200
     8  O          0.29586110       0.17819820       0.67657800
     9  C          0.46116170       0.58173000       0.01822130
    10  C          0.53883830       0.08173000       0.48177870
    11  C          0.53883830       0.41827000       0.98177870
    12  C          0.46116170       0.91827000       0.51822130
    13  H          0.45770000       0.73550000      -0.00380000
    14  H          0.54230000       0.23550000       0.50380000
    15  H          0.54230000       0.26450000       0.00380000
    16  H          0.45770000       0.76450000       0.49620000
    17  C          0.39317180       0.53573000       0.08070130
    18  C          0.60682820       0.03573000       0.41929870
    19  C          0.60682820       0.46427000       0.91929870
    20  C          0.39317180       0.96427000       0.58070130
    21  H          0.34580000       0.66030000       0.09710000
    22  H          0.65420000       0.16030000       0.40290000
    23  H          0.65420000       0.33970000       0.90290000
    24  H          0.34580000       0.83970000       0.59710000
    25  C          0.38520150       0.31003000       0.12621110
    26  C          0.61479850       0.81003000       0.37378890
    27  C          0.61479850       0.68997000       0.87378890
    28  C          0.38520150       0.18997000       0.62621110
    29  C          0.28042000       0.11273000       0.22763130
    30  C          0.71958000       0.61273000       0.27236870
    31  C          0.71958000       0.88727000       0.77236870
    32  C          0.28042000       0.38727000       0.72763130
    33  H          0.36800000       0.04810000       0.25900000
    34  H          0.63200000       0.54810000       0.24100000
    35  H          0.63200000       0.95190000       0.74100000
    36  H          0.36800000       0.45190000       0.75900000
    37  H          0.23030000      -0.00500000       0.18450000
    38  H          0.76970000       0.49500000       0.31550000
    39  H          0.76970000       0.00500000       0.81550000
    40  H          0.23030000       0.50500000       0.68450000
    41  C          0.20701150       0.17342000       0.29840110
    42  C          0.79298850       0.67342000       0.20159890
    43  C          0.79298850       0.82658000       0.70159890
    44  C          0.20701150       0.32658000       0.79840110
    45  C          0.23699170       0.37373000       0.35285120
    46  C          0.76300830       0.87373000       0.14714880
    47  C          0.76300830       0.62627000       0.64714880
    48  C          0.23699170       0.12627000       0.85285120
    49  H          0.30260000       0.47710000       0.34450000
    50  H          0.69740000      -0.02290000       0.15550000
    51  H          0.69740000       0.52290000       0.65550000
    52  H          0.30260000       0.02290000       0.84450000
    53  C          0.16998190       0.42063000       0.41936120
    54  C          0.83001810       0.92063000       0.08063880
    55  C          0.83001810       0.57937000       0.58063880
    56  C          0.16998190       0.07937000       0.91936120
    57  H          0.18980000       0.55650000       0.45550000
    58  H          0.81020000       0.05650000       0.04450000
    59  H          0.81020000       0.44350000       0.54450000
    60  H          0.18980000       0.94350000       0.95550000
    61  C          0.07415180       0.26803000       0.43257120
    62  C          0.92584820       0.76803000       0.06742880
    63  C          0.92584820       0.73197000       0.56742880
    64  C          0.07415180       0.23197000       0.93257120
    65  H          0.02980000       0.29940000       0.47810000
    66  H          0.97020000       0.79940000       0.02190000
    67  H          0.97020000       0.70060000       0.52190000
    68  H          0.02980000       0.20060000       0.97810000
    69  C          0.04395180       0.07023000       0.37892130
    70  C          0.95604820       0.57023000       0.12107870
    71  C          0.95604820       0.92977000       0.62107870
    72  C          0.04395180       0.42977000       0.87892130
    73  H          0.97870000       0.96680000       0.38780000
    74  H          0.02130000       0.46680000       0.11220000
    75  H          0.02130000       0.03320000       0.61220000
    76  H          0.97870000       0.53320000       0.88780000
    77  C          0.10951170       0.02263000       0.31165110
    78  C          0.89048830       0.52263000       0.18834890
    79  C          0.89048830      -0.02263000       0.68834890
    80  C          0.10951170       0.47737000       0.81165110
    81  H          0.08790000       0.88790000       0.27490000
    82  H          0.91210000       0.38790000       0.22510000
    83  H          0.91210000       0.11210000       0.72510000
    84  H          0.08790000       0.61210000       0.77490000
