data_MUBJOJ05
_symmetry_space_group_name_H-M    'P1'
_symmetry_Int_Tables_number       1
loop_
_symmetry_equiv_pos_site_id
_symmetry_equiv_pos_as_xyz
1 x,y,z
_cell_length_a                   12.21708
_cell_length_b                   6.17304
_cell_length_c                   10.32565
_cell_angle_alpha                90.0
_cell_angle_beta                 97.9276
_cell_angle_gamma                90.0
loop_
_atom_site_label
_atom_site_type_symbol
_atom_site_fract_x
_atom_site_fract_y
_atom_site_fract_z
     1  N          0.48507800       0.76101150       0.42131800
     2  N          0.51492200       0.26101150       0.07868200
     3  N          0.51492200       0.23898850       0.57868200
     4  N          0.48507800       0.73898850       0.92131800
     5  C          0.53263900       0.57203170       0.46148900
     6  C          0.46736100       0.07203170       0.03851100
     7  C          0.46736100       0.42796830       0.53851100
     8  C          0.53263900       0.92796830       0.96148900
     9  C          0.63665900       0.50851170       0.43363900
    10  C          0.36334100       0.00851170       0.06636100
    11  C          0.36334100       0.49148830       0.56636100
    12  C          0.63665900      -0.00851170       0.93363900
    13  H          0.66734600       0.37414500       0.46544100
    14  H          0.33265400       0.87414500       0.03455900
    15  H          0.33265400       0.62585500       0.53455900
    16  H          0.66734600       0.12585500       0.96544100
    17  C          0.69534900       0.64262170       0.35910900
    18  C          0.30465100       0.14262170       0.14089100
    19  C          0.30465100       0.35737830       0.64089100
    20  C          0.69534900       0.85737830       0.85910900
    21  C          0.64513900       0.83885180       0.31717100
    22  C          0.35486100       0.33885180       0.18282900
    23  C          0.35486100       0.16114820       0.68282900
    24  C          0.64513900       0.66114820       0.81717100
    25  H          0.68110100       0.93595500       0.26543400
    26  H          0.31889900       0.43595500       0.23456600
    27  H          0.31889900       0.06404500       0.73456600
    28  H          0.68110100       0.56404500       0.76543400
    29  C          0.54261900       0.89065180       0.35158100
    30  C          0.45738100       0.39065180       0.14841900
    31  C          0.45738100       0.10934820       0.64841900
    32  C          0.54261900       0.60934820       0.85158100
    33  H          0.51119700       0.02658900       0.32398100
    34  H          0.48880300       0.52658900       0.17601900
    35  H          0.48880300       0.97341100       0.67601900
    36  H          0.51119700       0.47341100       0.82398100
    37  C          0.80638900       0.57606180       0.31853100
    38  C          0.19361100       0.07606180       0.18146900
    39  C          0.19361100       0.42393820       0.68146900
    40  C          0.80638900       0.92393820       0.81853100
    41  C          0.88722100       0.76702000       0.33074140
    42  C          0.11277900       0.26702000       0.16925860
    43  C          0.11277900       0.23298000       0.66925860
    44  C          0.88722100       0.73298000       0.83074140
    45  H          0.85689800       0.88431900       0.27266700
    46  H          0.14310200       0.38431900       0.22733300
    47  H          0.14310200       0.11568100       0.72733300
    48  H          0.85689800       0.61568100       0.77266700
    49  H          0.95811400       0.71985500       0.30606200
    50  H          0.04188600       0.21985500       0.19393800
    51  H          0.04188600       0.28014500       0.69393800
    52  H          0.95811400       0.78014500       0.80606200
    53  H          0.89839000       0.81884400       0.42129800
    54  H          0.10161000       0.31884400       0.07870200
    55  H          0.10161000       0.18115600       0.57870200
    56  H          0.89839000       0.68115600       0.92129800
    57  C          0.85964100       0.39042000       0.40317120
    58  C          0.14035900       0.89042000       0.09682880
    59  C          0.14035900       0.60958000       0.59682880
    60  C          0.85964100       0.10958000       0.90317120
    61  H          0.86977100       0.43434600       0.49524500
    62  H          0.13022900       0.93434600       0.00475500
    63  H          0.13022900       0.56565400       0.50475500
    64  H          0.86977100       0.06565400      -0.00475500
    65  H          0.93158800       0.35529000       0.37672600
    66  H          0.06841200       0.85529000       0.12327400
    67  H          0.06841200       0.64471000       0.62327400
    68  H          0.93158800       0.14471000       0.87672600
    69  H          0.81163800       0.26265000       0.39171700
    70  H          0.18836200       0.76265000       0.10828300
    71  H          0.18836200       0.73735000       0.60828300
    72  H          0.81163800       0.23735000       0.89171700
    73  C          0.78516110       0.50103000       0.17552110
    74  C          0.21483890       0.00103000       0.32447890
    75  C          0.21483890       0.49897000       0.82447890
    76  C          0.78516110      -0.00103000       0.67552110
    77  H          0.73311000       0.37932100       0.16758200
    78  H          0.26689000       0.87932100       0.33241800
    79  H          0.26689000       0.62067900       0.83241800
    80  H          0.73311000       0.12067900       0.66758200
    81  H          0.85496400       0.45474600       0.14750900
    82  H          0.14503600       0.95474600       0.35249100
    83  H          0.14503600       0.54525400       0.85249100
    84  H          0.85496400       0.04525400       0.64750900
    85  H          0.75384600       0.62085600       0.12017300
    86  H          0.24615400       0.12085600       0.37982700
    87  H          0.24615400       0.37914400       0.87982700
    88  H          0.75384600       0.87914400       0.62017300
