data_MUBJOJ
_symmetry_space_group_name_H-M    'P1'
_symmetry_Int_Tables_number       1
loop_
_symmetry_equiv_pos_site_id
_symmetry_equiv_pos_as_xyz
1 x,y,z
_cell_length_a                   10.2415
_cell_length_b                   6.2283
_cell_length_c                   24.5591
_cell_angle_alpha                90.0
_cell_angle_beta                 99.753
_cell_angle_gamma                90.0
loop_
_atom_site_label
_atom_site_type_symbol
_atom_site_fract_x
_atom_site_fract_y
_atom_site_fract_z
     1  N          0.32493000       0.30015000       0.25918120
     2  N          0.67507000       0.80015000       0.24081880
     3  N          0.67507000       0.69985000       0.74081880
     4  N          0.32493000       0.19985000       0.75918120
     5  N          0.17193000       0.81515000       0.24419120
     6  N          0.82807000       0.31515000       0.25580880
     7  N          0.82807000       0.18485000       0.75580880
     8  N          0.17193000       0.68485000       0.74419120
     9  C          0.39313000       0.17156000       0.23049140
    10  C          0.60687000       0.67156000       0.26950860
    11  C          0.60687000       0.82844000       0.76950860
    12  C          0.39313000       0.32844000       0.73049140
    13  H          0.42010000       0.03860000       0.24560000
    14  H          0.57990000       0.53860000       0.25440000
    15  H          0.57990000       0.96140000       0.75440000
    16  H          0.42010000       0.46140000       0.74560000
    17  C          0.42603000       0.22366000       0.17986140
    18  C          0.57397000       0.72366000       0.32013860
    19  C          0.57397000       0.77634000       0.82013860
    20  C          0.42603000       0.27634000       0.67986140
    21  H          0.47570000       0.12840000       0.16250000
    22  H          0.52430000       0.62840000       0.33750000
    23  H          0.52430000       0.87160000       0.83750000
    24  H          0.47570000       0.37160000       0.66250000
    25  C          0.38523000       0.41666000       0.15491130
    26  C          0.61477000       0.91666000       0.34508870
    27  C          0.61477000       0.58334000       0.84508870
    28  C          0.38523000       0.08334000       0.65491130
    29  C          0.31183000       0.54776000       0.18389140
    30  C          0.68817000       0.04776000       0.31610860
    31  C          0.68817000       0.45224000       0.81610860
    32  C          0.31183000       0.95224000       0.68389140
    33  H          0.28010000       0.67860000       0.16890000
    34  H          0.71990000       0.17860000       0.33110000
    35  H          0.71990000       0.32140000       0.83110000
    36  H          0.28010000       0.82140000       0.66890000
    37  C          0.28523000       0.48486000       0.23540140
    38  C          0.71477000      -0.01514000       0.26459860
    39  C          0.71477000       0.51514000       0.76459860
    40  C          0.28523000       0.01514000       0.73540140
    41  C          0.21033000       0.62856000       0.26780140
    42  C          0.78967000       0.12856000       0.23219860
    43  C          0.78967000       0.37144000       0.73219860
    44  C          0.21033000       0.87144000       0.76780140
    45  C          0.18303000       0.56716000       0.31914140
    46  C          0.81697000       0.06716000       0.18085860
    47  C          0.81697000       0.43284000       0.68085860
    48  C          0.18303000       0.93284000       0.81914140
    49  H          0.21300000       0.43510000       0.33400000
    50  H          0.78700000       0.93510000       0.16600000
    51  H          0.78700000       0.56490000       0.66600000
    52  H          0.21300000       0.06490000       0.83400000
    53  C          0.11153000       0.70106000       0.34851140
    54  C          0.88847000       0.20106000       0.15148860
    55  C          0.88847000       0.29894000       0.65148860
    56  C          0.11153000       0.79894000       0.84851140
    57  C          0.07213000       0.89446000       0.32347140
    58  C          0.92787000       0.39446000       0.17652860
    59  C          0.92787000       0.10554000       0.67652860
    60  C          0.07213000       0.60554000       0.82347140
    61  H          0.02410000      -0.00830000       0.34090000
    62  H          0.97590000       0.49170000       0.15910000
    63  H          0.97590000       0.00830000       0.65910000
    64  H          0.02410000       0.50830000       0.84090000
    65  C          0.10413000       0.94346000       0.27250150
    66  C          0.89587000       0.44346000       0.22749850
    67  C          0.89587000       0.05654000       0.72749850
    68  C          0.10413000       0.55654000       0.77250150
    69  H          0.07630000       0.07520000       0.25690000
    70  H          0.92370000       0.57520000       0.24310000
    71  H          0.92370000       0.92480000       0.74310000
    72  H          0.07630000       0.42480000       0.75690000
    73  C          0.42504000       0.48067000       0.10003140
    74  C          0.57496000      -0.01933000       0.39996860
    75  C          0.57496000       0.51933000       0.89996860
    76  C          0.42504000       0.01933000       0.60003140
    77  C          0.57274000       0.52241100       0.11030190
    78  C          0.42726000       0.02241100       0.38969810
    79  C          0.42726000       0.47758900       0.88969810
    80  C          0.57274000      -0.02241100       0.61030190
    81  H          0.61880000       0.39380000       0.12380000
    82  H          0.38120000       0.89380000       0.37620000
    83  H          0.38120000       0.60620000       0.87620000
    84  H          0.61880000       0.10620000       0.62380000
    85  H          0.59290000       0.63450000       0.13720000
    86  H          0.40710000       0.13450000       0.36280000
    87  H          0.40710000       0.36550000       0.86280000
    88  H          0.59290000       0.86550000       0.63720000
    89  H          0.60000000       0.56550000       0.07640000
    90  H          0.40000000       0.06550000       0.42360000
    91  H          0.40000000       0.43450000       0.92360000
    92  H          0.60000000       0.93450000       0.57640000
    93  C          0.39296000       0.30501000       0.05788190
    94  C          0.60704000       0.80501000       0.44211810
    95  C          0.60704000       0.69499000       0.94211810
    96  C          0.39296000       0.19499000       0.55788190
    97  H          0.41080000       0.35400000       0.02280000
    98  H          0.58920000       0.85400000       0.47720000
    99  H          0.58920000       0.64600000       0.97720000
   100  H          0.41080000       0.14600000       0.52280000
   101  H          0.30090000       0.26750000       0.05450000
   102  H          0.69910000       0.76750000       0.44550000
   103  H          0.69910000       0.73250000       0.94550000
   104  H          0.30090000       0.23250000       0.55450000
   105  H          0.44640000       0.18130000       0.06940000
   106  H          0.55360000       0.68130000       0.43060000
   107  H          0.55360000       0.81870000       0.93060000
   108  H          0.44640000       0.31870000       0.56940000
   109  C          0.35436000       0.67891100       0.07622000
   110  C          0.64564000       0.17891100       0.42378000
   111  C          0.64564000       0.32108900       0.92378000
   112  C          0.35436000       0.82108900       0.57622000
   113  H          0.38180000       0.71330000       0.04170000
   114  H          0.61820000       0.21330000       0.45830000
   115  H          0.61820000       0.28670000       0.95830000
   116  H          0.38180000       0.78670000       0.54170000
   117  H          0.37540000       0.79630000       0.10150000
   118  H          0.62460000       0.29630000       0.39850000
   119  H          0.62460000       0.20370000       0.89850000
   120  H          0.37540000       0.70370000       0.60150000
   121  H          0.26040000       0.65420000       0.07010000
   122  H          0.73960000       0.15420000       0.42990000
   123  H          0.73960000       0.34580000       0.92990000
   124  H          0.26040000       0.84580000       0.57010000
   125  C          0.07344000       0.63507000       0.40367140
   126  C          0.92656000       0.13507000       0.09632860
   127  C          0.92656000       0.36493000       0.59632860
   128  C          0.07344000       0.86493000       0.90367140
   129  C          0.17395000       0.48371000       0.43529180
   130  C          0.82605000      -0.01629000       0.06470820
   131  C          0.82605000       0.51629000       0.56470820
   132  C          0.17395000       0.01629000       0.93529180
   133  H          0.14970000       0.45220000       0.47050000
   134  H          0.85030000       0.95220000       0.02950000
   135  H          0.85030000       0.54780000       0.52950000
   136  H          0.14970000       0.04780000       0.97050000
   137  H          0.25990000       0.54960000       0.44070000
   138  H          0.74010000       0.04960000       0.05930000
   139  H          0.74010000       0.45040000       0.55930000
   140  H          0.25990000       0.95040000       0.94070000
   141  H          0.17610000       0.35300000       0.41470000
   142  H          0.82390000       0.85300000       0.08530000
   143  H          0.82390000       0.64700000       0.58530000
   144  H          0.17610000       0.14700000       0.91470000
   145  C          0.93935000       0.52471000       0.39153180
   146  C          0.06065000       0.02471000       0.10846820
   147  C          0.06065000       0.47529000       0.60846820
   148  C          0.93935000       0.97529000       0.89153180
   149  H          0.87530000       0.62140000       0.37170000
   150  H          0.12470000       0.12140000       0.12830000
   151  H          0.12470000       0.37860000       0.62830000
   152  H          0.87530000       0.87860000       0.87170000
   153  H          0.91230000       0.48400000       0.42560000
   154  H          0.08770000      -0.01600000       0.07440000
   155  H          0.08770000       0.51600000       0.57440000
   156  H          0.91230000       0.01600000       0.92560000
   157  H          0.94590000       0.39890000       0.36950000
   158  H          0.05410000       0.89890000       0.13050000
   159  H          0.05410000       0.60110000       0.63050000
   160  H          0.94590000       0.10110000       0.86950000
   161  C          0.06216000       0.82879000       0.44040180
   162  C          0.93784000       0.32879000       0.05959820
   163  C          0.93784000       0.17121000       0.55959820
   164  C          0.06216000       0.67121000       0.94040180
   165  H         -0.00770000       0.92080000       0.42290000
   166  H          0.00770000       0.42080000       0.07710000
   167  H          0.00770000       0.07920000       0.57710000
   168  H         -0.00770000       0.57920000       0.92290000
   169  H          0.14430000       0.90620000       0.44620000
   170  H          0.85570000       0.40620000       0.05380000
   171  H          0.85570000       0.09380000       0.55380000
   172  H          0.14430000       0.59380000       0.94620000
   173  H          0.04260000       0.78120000       0.47530000
   174  H          0.95740000       0.28120000       0.02470000
   175  H          0.95740000       0.21880000       0.52470000
   176  H          0.04260000       0.71880000       0.97530000
