data_MUBJOJ04
_symmetry_space_group_name_H-M    'P1'
_symmetry_Int_Tables_number       1
loop_
_symmetry_equiv_pos_site_id
_symmetry_equiv_pos_as_xyz
1 x,y,z
_cell_length_a                   6.3873
_cell_length_b                   10.6765
_cell_length_c                   23.60712
_cell_angle_alpha                90.0
_cell_angle_beta                 95.1321
_cell_angle_gamma                90.0
loop_
_atom_site_label
_atom_site_type_symbol
_atom_site_fract_x
_atom_site_fract_y
_atom_site_fract_z
     1  N          0.03938000       0.44955000       0.72602000
     2  N          0.96062000       0.94955000       0.77398000
     3  N          0.96062000       0.55045000       0.27398000
     4  N          0.03938000       0.05045000       0.22602000
     5  N          0.45938000       0.23595000       0.76702000
     6  N          0.54062000       0.73595000       0.73298000
     7  N          0.54062000       0.76405000       0.23298000
     8  N          0.45938000       0.26405000       0.26702000
     9  C          0.87459000       0.49906000       0.74903000
    10  C          0.12541000      -0.00094000       0.75097000
    11  C          0.12541000       0.50094000       0.25097000
    12  C          0.87459000       0.00094000       0.24903000
    13  H          0.78749100       0.55527200       0.72640800
    14  H          0.21250900       0.05527200       0.77359200
    15  H          0.21250900       0.44472800       0.27359200
    16  H          0.78749100       0.94472800       0.22640800
    17  C          0.82271000       0.47436000       0.80273000
    18  C          0.17729000       0.97436000       0.69727000
    19  C          0.17729000       0.52564000       0.19727000
    20  C          0.82271000       0.02564000       0.30273000
    21  H          0.70542000       0.51470300       0.81679000
    22  H          0.29458000       0.01470300       0.68321000
    23  H          0.29458000       0.48529700       0.18321000
    24  H          0.70542000       0.98529700       0.31679000
    25  C          0.94339000       0.38936000       0.83713000
    26  C          0.05661000       0.88936000       0.66287000
    27  C          0.05661000       0.61064000       0.16287000
    28  C          0.94339000       0.11064000       0.33713000
    29  C          0.11599000       0.33956000       0.81353000
    30  C          0.88401000       0.83956000       0.68647000
    31  C          0.88401000       0.66044000       0.18647000
    32  C          0.11599000       0.16044000       0.31353000
    33  H          0.20670200       0.28386800       0.83540000
    34  H          0.79329800       0.78386800       0.66460000
    35  H          0.79329800       0.71613200       0.16460000
    36  H          0.20670200       0.21613200       0.33540000
    37  C          0.15819000       0.36865000       0.75933000
    38  C          0.84181000       0.86865000       0.74067000
    39  C          0.84181000       0.63135000       0.24067000
    40  C          0.15819000       0.13135000       0.25933000
    41  C          0.34441000       0.31697000       0.73383000
    42  C          0.65559000       0.81697000       0.76617000
    43  C          0.65559000       0.68303000       0.26617000
    44  C          0.34441000       0.18303000       0.23383000
    45  C          0.39079000       0.35066000       0.68013000
    46  C          0.60921000       0.85066000       0.81987000
    47  C          0.60921000       0.64934000       0.31987000
    48  C          0.39079000       0.14934000       0.18013000
    49  H          0.30430600       0.40925200       0.65868200
    50  H          0.69569400       0.90925200       0.84131800
    51  H          0.69569400       0.59074800       0.34131800
    52  H          0.30430600       0.09074800       0.15868200
    53  C          0.56671000       0.29796000       0.65703000
    54  C          0.43329000       0.79796000       0.84297000
    55  C          0.43329000       0.70204000       0.34297000
    56  C          0.56671000       0.20204000       0.15703000
    57  C          0.68029000       0.21406000       0.69113000
    58  C          0.31971000       0.71406000       0.80887000
    59  C          0.31971000       0.78594000       0.30887000
    60  C          0.68029000       0.28594000       0.19113000
    61  H          0.79819400       0.17368000       0.67732300
    62  H          0.20180600       0.67368000       0.82267700
    63  H          0.20180600       0.82632000       0.32267700
    64  H          0.79819400       0.32632000       0.17732300
    65  C          0.62689000       0.18696000       0.74493000
    66  C          0.37311000       0.68696000       0.75507000
    67  C          0.37311000       0.81304000       0.25507000
    68  C          0.62689000       0.31304000       0.24493000
    69  H          0.71325700       0.13033400       0.76755000
    70  H          0.28674300       0.63033400       0.73245000
    71  H          0.28674300       0.86966600       0.23245000
    72  H          0.71325700       0.36966600       0.26755000
    73  C          0.89288900       0.35287000       0.89663000
    74  C          0.10711100       0.85287000       0.60337000
    75  C          0.10711100       0.64713000       0.10337000
    76  C          0.89288900       0.14713000       0.39663000
    77  C          0.08481200       0.36459000       0.93813000
    78  C          0.91518800       0.86459000       0.56187000
    79  C          0.91518800       0.63541000       0.06187000
    80  C          0.08481200       0.13541000       0.43813000
    81  H          0.19515400       0.30864600       0.92659700
    82  H          0.80484600       0.80864600       0.57340300
    83  H          0.80484600       0.69135400       0.07340300
    84  H          0.19515400       0.19135400       0.42659700
    85  H          0.04888200       0.34133400       0.97619300
    86  H          0.95111800       0.84133400       0.52380700
    87  H          0.95111800       0.65866600       0.02380700
    88  H          0.04888200       0.15866600       0.47619300
    89  H          0.13528200       0.45121900       0.93848500
    90  H          0.86471800       0.95121900       0.56151500
    91  H          0.86471800       0.54878100       0.06151500
    92  H          0.13528200       0.04878100       0.43848500
    93  C          0.81518700       0.21797000       0.89553000
    94  C          0.18481300       0.71797000       0.60447000
    95  C          0.18481300       0.78203000       0.10447000
    96  C          0.81518700       0.28203000       0.39553000
    97  H          0.68960700       0.21058700       0.86863900
    98  H          0.31039300       0.71058700       0.63136100
    99  H          0.31039300       0.78941300       0.13136100
   100  H          0.68960700       0.28941300       0.36863900
   101  H          0.78046900       0.19384600       0.93359800
   102  H          0.21953100       0.69384600       0.56640200
   103  H          0.21953100       0.80615400       0.06640200
   104  H          0.78046900       0.30615400       0.43359800
   105  H          0.92548200       0.16259600       0.88354500
   106  H          0.07451800       0.66259600       0.61645500
   107  H          0.07451800       0.83740400       0.11645500
   108  H          0.92548200       0.33740400       0.38354500
   109  C          0.71968700       0.43448000       0.91773000
   110  C          0.28031300       0.93448000       0.58227000
   111  C          0.28031300       0.56552000       0.08227000
   112  C          0.71968700       0.06552000       0.41773000
   113  H          0.75810000       0.52285400       0.91468400
   114  H          0.24190000       0.02285400       0.58531600
   115  H          0.24190000       0.47714600       0.08531600
   116  H          0.75810000       0.97714600       0.41468400
   117  H          0.70248600       0.41401000       0.95747400
   118  H          0.29751400       0.91401000       0.54252600
   119  H          0.29751400       0.58599000       0.04252600
   120  H          0.70248600       0.08599000       0.45747400
   121  H          0.58739300       0.41866700       0.89444500
   122  H          0.41260700       0.91866700       0.60555500
   123  H          0.41260700       0.58133300       0.10555500
   124  H          0.58739300       0.08133300       0.39444500
   125  C          0.62291100       0.33447000       0.59853000
   126  C          0.37708900       0.83447000       0.90147000
   127  C          0.37708900       0.66553000       0.40147000
   128  C          0.62291100       0.16553000       0.09853000
   129  C          0.44681300       0.30471000       0.55453000
   130  C          0.55318700       0.80471000       0.94547000
   131  C          0.55318700       0.69529000       0.44547000
   132  C          0.44681300       0.19529000       0.05453000
   133  H          0.40770100       0.21637300       0.55754900
   134  H          0.59229900       0.71637300       0.94245100
   135  H          0.59229900       0.78362700       0.44245100
   136  H          0.40770100       0.28362700       0.05754900
   137  H          0.49205900       0.32071600       0.51655400
   138  H          0.50794100       0.82071600       0.98344600
   139  H          0.50794100       0.67928400       0.48344600
   140  H          0.49205900       0.17928400       0.01655400
   141  H          0.32535300       0.35759600       0.56047200
   142  H          0.67464700       0.85759600       0.93952800
   143  H          0.67464700       0.64240400       0.43952800
   144  H          0.32535300       0.14240400       0.06047200
   145  C          0.66681400       0.47707000       0.59753000
   146  C          0.33318600       0.97707000       0.90247000
   147  C          0.33318600       0.52293000       0.40247000
   148  C          0.66681400       0.02293000       0.09753000
   149  H          0.53808200       0.52290200       0.60378000
   150  H          0.46191800       0.02290200       0.89622000
   151  H          0.46191800       0.47709800       0.39622000
   152  H          0.53808200       0.97709800       0.10378000
   153  H          0.71309100       0.50029500       0.56040100
   154  H          0.28690900       0.00029500       0.93959900
   155  H          0.28690900       0.49970500       0.43959900
   156  H          0.71309100      -0.00029500       0.06040100
   157  H          0.77708300       0.49808000       0.62750300
   158  H          0.22291700      -0.00192000       0.87249700
   159  H          0.22291700       0.50192000       0.37249700
   160  H          0.77708300       0.00192000       0.12750300
   161  C          0.82031300       0.27059000       0.58244000
   162  C          0.17968700       0.77059000       0.91756000
   163  C          0.17968700       0.72941000       0.41756000
   164  C          0.82031300       0.22941000       0.08244000
   165  H          0.93669300       0.28880400       0.61108600
   166  H          0.06330700       0.78880400       0.88891400
   167  H          0.06330700       0.71119600       0.38891400
   168  H          0.93669300       0.21119600       0.11108600
   169  H          0.85492500       0.30135800       0.54524800
   170  H          0.14507500       0.80135800       0.95475200
   171  H          0.14507500       0.69864200       0.45475200
   172  H          0.85492500       0.19864200       0.04524800
   173  H          0.79720600       0.17975500       0.58031200
   174  H          0.20279400       0.67975500       0.91968800
   175  H          0.20279400       0.82024500       0.41968800
   176  H          0.79720600       0.32024500       0.08031200
