data_MUDWEO02
_symmetry_space_group_name_H-M    'P1'
_symmetry_Int_Tables_number       1
loop_
_symmetry_equiv_pos_site_id
_symmetry_equiv_pos_as_xyz
1 x,y,z
_cell_length_a                   9.20572
_cell_length_b                   9.01652
_cell_length_c                   21.16915
_cell_angle_alpha                90.0
_cell_angle_beta                 102.44501
_cell_angle_gamma                90.0
loop_
_atom_site_label
_atom_site_type_symbol
_atom_site_fract_x
_atom_site_fract_y
_atom_site_fract_z
     1  C          0.58710160       0.17446160       0.02523700
     2  C          0.91289840       0.67446160       0.47476300
     3  C          0.41289840       0.82553840       0.97476300
     4  C          0.08710160       0.32553840       0.52523700
     5  C          0.51625160       0.24418160       0.96614300
     6  C         -0.01625160       0.74418160       0.53385700
     7  C          0.48374840       0.75581840       0.03385700
     8  C          0.01625160       0.25581840       0.46614300
     9  C          0.35423170       0.15041160       0.05750700
    10  C          0.14576830       0.65041160       0.44249300
    11  C          0.64576830       0.84958840       0.94249300
    12  C          0.85423170       0.34958840       0.55750700
    13  N          0.74393150       0.14584160       0.04241700
    14  N          0.75606850       0.64584160       0.45758300
    15  N          0.25606850       0.85415840       0.95758300
    16  N          0.24393150       0.35415840       0.54241700
    17  C          0.36347160       0.26434170       0.95599300
    18  C          0.13652840       0.76434170       0.54400700
    19  C          0.63652840       0.73565830       0.04400700
    20  C          0.86347160       0.23565830       0.45599300
    21  H          0.31560000       0.31040000       0.91790000
    22  H          0.18440000       0.81040000       0.58210000
    23  H          0.68440000       0.68960000       0.08210000
    24  H          0.81560000       0.18960000       0.41790000
    25  C          0.27722160       0.21987160      -0.00067700
    26  C          0.22277840       0.71987160       0.50067700
    27  C          0.72277840       0.78012840       0.00067700
    28  C          0.77722160       0.28012840       0.49932300
    29  N          0.59116170       0.28961180       0.92091400
    30  N          0.90883830       0.78961180       0.57908600
    31  N          0.40883830       0.71038820       0.07908600
    32  N          0.09116170       0.21038820       0.42091400
    33  C          0.50486180       0.12926160       0.06880700
    34  C         -0.00486180       0.62926160       0.43119300
    35  C          0.49513820       0.87073840       0.93119300
    36  C          0.00486180       0.37073840       0.56880700
    37  H          0.55280000       0.08320000       0.10690000
    38  H          0.94720000       0.58320000       0.39310000
    39  H          0.44720000       0.91680000       0.89310000
    40  H          0.05280000       0.41680000       0.60690000
    41  N          0.27987170       0.10132150       0.10722700
    42  N          0.22012830       0.60132150       0.39277300
    43  N          0.72012830       0.89867850       0.89277300
    44  N          0.77987170       0.39867850       0.60722700
    45  N          0.12896150       0.24246170       0.98505300
    46  N          0.37103850       0.74246170       0.51494700
    47  N          0.87103850       0.75753830       0.01494700
    48  N          0.62896150       0.25753830       0.48505300
    49  C          0.05269170       0.31796190       0.92821200
    50  C          0.44730830       0.81796190       0.57178800
    51  C          0.94730830       0.68203810       0.07178800
    52  C          0.55269170       0.18203810       0.42821200
    53  O          0.79807140       0.09228180       0.09498600
    54  O          0.70192860       0.59228180       0.40501400
    55  O          0.20192860       0.90771820       0.90501400
    56  O          0.29807140       0.40771820       0.59498600
    57  C          0.52191190       0.36512000       0.86302200
    58  C          0.97808810       0.86512000       0.63697800
    59  C          0.47808810       0.63488000       0.13697800
    60  C          0.02191190       0.13488000       0.36302200
    61  O          0.82088130       0.17556180       0.00272600
    62  O          0.67911870       0.67556180       0.49727400
    63  O          0.17911870       0.82443820      -0.00272600
    64  O          0.32088130       0.32443820       0.50272600
    65  O          0.14439150       0.11261160       0.09841700
    66  O          0.35560850       0.61261160       0.40158300
    67  O          0.85560850       0.88738840       0.90158300
    68  O          0.64439150       0.38738840       0.59841700
    69  O          0.35396160       0.04942000       0.15684700
    70  O          0.14603840       0.54942000       0.34315300
    71  O          0.64603840       0.95058000       0.84315300
    72  O          0.85396160       0.45058000       0.65684700
    73  C          0.97188000       0.24022000       0.87743100
    74  C          0.52812000       0.74022000       0.62256900
    75  C          0.02812000       0.75978000       0.12256900
    76  C          0.47188000       0.25978000       0.37743100
    77  H          0.96720000       0.13730000       0.87920000
    78  H          0.53280000       0.63730000       0.62080000
    79  H          0.03280000       0.86270000       0.12080000
    80  H          0.46720000       0.36270000       0.37920000
    81  C          0.05962000       0.47032000       0.92562900
    82  C          0.44038000       0.97032000       0.57437100
    83  C          0.94038000       0.52968000       0.07437100
    84  C          0.55962000       0.02968000       0.42562900
    85  H          0.11430000       0.52330000       0.96050000
    86  H          0.38570000       0.02330000       0.53950000
    87  H          0.88570000       0.47670000       0.03950000
    88  H          0.61430000       0.97670000       0.46050000
    89  C         -0.01453000       0.54353000       0.87137880
    90  C          0.51453000       0.04353000       0.62862120
    91  C          0.01453000       0.45647000       0.12862120
    92  C          0.48547000       0.95647000       0.37137880
    93  H         -0.00950000       0.64640000       0.86940000
    94  H          0.50950000       0.14640000       0.63060000
    95  H          0.00950000       0.35360000       0.13060000
    96  H          0.49050000       0.85360000       0.36940000
    97  C          0.89687000       0.31543000       0.82326900
    98  C          0.60313000       0.81543000       0.67673100
    99  C          0.10313000       0.68457000       0.17673100
   100  C          0.39687000       0.18457000       0.32326900
   101  H          0.84100000       0.26290000       0.78860000
   102  H          0.65900000       0.76290000       0.71140000
   103  H          0.15900000       0.73710000       0.21140000
   104  H          0.34100000       0.23710000       0.28860000
   105  C          0.49144000       0.50983000       0.86425890
   106  C          0.00856000       0.00983000       0.63574110
   107  C          0.50856000       0.49017000       0.13574110
   108  C         -0.00856000      -0.00983000       0.36425890
   109  H          0.51430000       0.56130000       0.90320000
   110  H         -0.01430000       0.06130000       0.59680000
   111  H          0.48570000       0.43870000       0.09680000
   112  H          0.01430000       0.93870000       0.40320000
   113  C          0.48763000       0.29123000       0.80608900
   114  C          0.01237000       0.79123000       0.69391100
   115  C          0.51237000       0.70877000       0.19391100
   116  C         -0.01237000       0.20877000       0.30608900
   117  H          0.50730000       0.19020000       0.80460000
   118  H         -0.00730000       0.69020000       0.69540000
   119  H          0.49270000       0.80980000       0.19540000
   120  H          0.00730000       0.30980000       0.30460000
   121  C          0.90447000       0.46643000       0.82045880
   122  C          0.59553000       0.96643000       0.67954120
   123  C          0.09553000       0.53357000       0.17954120
   124  C          0.40447000       0.03357000       0.32045880
   125  H          0.85450000       0.51650000       0.78380000
   126  H          0.64550000       0.01650000       0.71620000
   127  H          0.14550000       0.48350000       0.21620000
   128  H          0.35450000       0.98350000       0.28380000
   129  C          0.42344000       0.36604000       0.75044890
   130  C          0.07656000       0.86604000       0.74955110
   131  C          0.57656000       0.63396000       0.24955110
   132  C          0.92344000       0.13396000       0.25044890
   133  H          0.39960000       0.31460000       0.71150000
   134  H          0.10040000       0.81460000       0.78850000
   135  H          0.60040000       0.68540000       0.28850000
   136  H          0.89960000       0.18540000       0.21150000
   137  C          0.42604000       0.58323000       0.80814870
   138  C          0.07396000       0.08323000       0.69185130
   139  C          0.57396000       0.41677000       0.19185130
   140  C          0.92604000       0.91677000       0.30814870
   141  H          0.40350000       0.68350000       0.80980000
   142  H          0.09650000       0.18350000       0.69020000
   143  H          0.59650000       0.31650000       0.19020000
   144  H          0.90350000       0.81650000       0.30980000
   145  C          0.39453000       0.51213000       0.75126890
   146  C          0.10547000       0.01213000       0.74873110
   147  C          0.60547000       0.48787000       0.24873110
   148  C          0.89453000      -0.01213000       0.25126890
   149  H          0.35350000       0.56250000       0.71330000
   150  H          0.14650000       0.06250000       0.78670000
   151  H          0.64650000       0.43750000       0.28670000
   152  H          0.85350000       0.93750000       0.21330000
   153  H          0.07920000       0.20320000       0.01059000
   154  H          0.42080000       0.70320000       0.48941000
   155  H          0.92080000       0.79680000       0.98941000
   156  H          0.57920000       0.29680000       0.51059000
   157  H          0.68420000       0.27120000       0.92961000
   158  H          0.81580000       0.77120000       0.57039000
   159  H          0.31580000       0.72880000       0.07039000
   160  H          0.18420000       0.22880000       0.42961000
