data_MUDWEO
_symmetry_space_group_name_H-M    'P1'
_symmetry_Int_Tables_number       1
loop_
_symmetry_equiv_pos_site_id
_symmetry_equiv_pos_as_xyz
1 x,y,z
_cell_length_a                   10.9526
_cell_length_b                   11.0073
_cell_length_c                   14.7365
_cell_angle_alpha                90.0
_cell_angle_beta                 109.903
_cell_angle_gamma                90.0
loop_
_atom_site_label
_atom_site_type_symbol
_atom_site_fract_x
_atom_site_fract_y
_atom_site_fract_z
     1  C          0.24733130       0.84702130       0.80578100
     2  C          0.75266870       0.34702130       0.69421900
     3  C          0.75266870       0.15297870       0.19421900
     4  C          0.24733130       0.65297870       0.30578100
     5  C          0.23084170       0.95745150       0.75877120
     6  C          0.76915830       0.45745150       0.74122880
     7  C          0.76915830       0.04254850       0.24122880
     8  C          0.23084170       0.54254850       0.25877120
     9  H          0.29960000       0.01190000       0.77190000
    10  H          0.70040000       0.51190000       0.72810000
    11  H          0.70040000      -0.01190000       0.22810000
    12  H          0.29960000       0.48810000       0.27190000
    13  C          0.11142000       0.98631190       0.69205160
    14  C          0.88858000       0.48631190       0.80794840
    15  C          0.88858000       0.01368810       0.30794840
    16  C          0.11142000       0.51368810       0.19205160
    17  H          0.09980000       0.06070000       0.66030000
    18  H          0.90020000       0.56070000       0.83970000
    19  H          0.90020000       0.93930000       0.33970000
    20  H          0.09980000       0.43930000       0.16030000
    21  C          0.00992000       0.90642000       0.67213170
    22  C         -0.00992000       0.40642000       0.82786830
    23  C         -0.00992000       0.09358000       0.32786830
    24  C          0.00992000       0.59358000       0.17213170
    25  H          0.93010000       0.92590000       0.62620000
    26  H          0.06990000       0.42590000       0.87380000
    27  H          0.06990000       0.07410000       0.37380000
    28  H          0.93010000       0.57410000       0.12620000
    29  C          0.02608170       0.79742000       0.72009160
    30  C          0.97391830       0.29742000       0.77990840
    31  C          0.97391830       0.20258000       0.27990840
    32  C          0.02608170       0.70258000       0.22009160
    33  H          0.95680000       0.74350000       0.70700000
    34  H          0.04320000       0.24350000       0.79300000
    35  H          0.04320000       0.25650000       0.29300000
    36  H          0.95680000       0.75650000       0.20700000
    37  C          0.14461150       0.76725160       0.78760130
    38  C          0.85538850       0.26725160       0.71239870
    39  C          0.85538850       0.23274840       0.21239870
    40  C          0.14461150       0.73274840       0.28760130
    41  H          0.15510000       0.69380000       0.82050000
    42  H          0.84490000       0.19380000       0.67950000
    43  H          0.84490000       0.30620000       0.17950000
    44  H          0.15510000       0.80620000       0.32050000
    45  N          0.37034110       0.82344110       0.87715900
    46  N          0.62965890       0.32344110       0.62284100
    47  N          0.62965890       0.17655890       0.12284100
    48  N          0.37034110       0.67655890       0.37715900
    49  H          0.40350000       0.88120000       0.91730000
    50  H          0.59650000       0.38120000       0.58270000
    51  H          0.59650000       0.11880000       0.08270000
    52  H          0.40350000       0.61880000       0.41730000
    53  C          0.44099120       0.71995120       0.88870100
    54  C          0.55900880       0.21995120       0.61129900
    55  C          0.55900880       0.28004880       0.11129900
    56  C          0.44099120       0.78004880       0.38870100
    57  C          0.40516130       0.62510130       0.82171100
    58  C          0.59483870       0.12510130       0.67828900
    59  C          0.59483870       0.37489870       0.17828900
    60  C          0.40516130       0.87489870       0.32171100
    61  H          0.33090000       0.63500000       0.76780000
    62  H          0.66910000       0.13500000       0.73220000
    63  H          0.66910000       0.36500000       0.23220000
    64  H          0.33090000       0.86500000       0.26780000
    65  C          0.47394130       0.51642120       0.83078100
    66  C          0.52605870       0.01642120       0.66921900
    67  C          0.52605870       0.48357880       0.16921900
    68  C          0.47394130       0.98357880       0.33078100
    69  C          0.58922140       0.50463120       0.91360100
    70  C          0.41077860       0.00463120       0.58639900
    71  C          0.41077860       0.49536880       0.08639900
    72  C          0.58922140      -0.00463120       0.41360100
    73  C          0.62708130       0.59682120       0.98027100
    74  C          0.37291870       0.09682120       0.51972900
    75  C          0.37291870       0.40317880       0.01972900
    76  C          0.62708130       0.90317880       0.48027100
    77  H          0.70220000       0.58740000       0.03360000
    78  H          0.29780000       0.08740000       0.46640000
    79  H          0.29780000       0.41260000       0.96640000
    80  H          0.70220000       0.91260000       0.53360000
    81  C          0.55682130       0.70251120       0.97027100
    82  C          0.44317870       0.20251120       0.52972900
    83  C          0.44317870       0.29748880       0.02972900
    84  C          0.55682130       0.79748880       0.47027100
    85  N          0.60551110       0.79005110       0.04684800
    86  N          0.39448890       0.29005110       0.45315200
    87  N          0.39448890       0.20994890       0.95315200
    88  N          0.60551110       0.70994890       0.54684800
    89  O          0.55147110       0.88969100       0.03998800
    90  O          0.44852890       0.38969100       0.46001200
    91  O          0.44852890       0.11030900       0.96001200
    92  O          0.55147110       0.61030900       0.53998800
    93  O          0.69934120       0.76305110       0.11783800
    94  O          0.30065880       0.26305110       0.38216200
    95  O          0.30065880       0.23694890       0.88216200
    96  O          0.69934120       0.73694890       0.61783800
    97  N          0.66974140       0.39730110       0.93433100
    98  N          0.33025860       0.89730110       0.56566900
    99  N          0.33025860       0.60269890       0.06566900
   100  N          0.66974140       0.10269890       0.43433100
   101  O          0.63011140       0.30476100       0.88562100
   102  O          0.36988860       0.80476100       0.61437900
   103  O          0.36988860       0.69523900       0.11437900
   104  O          0.63011140       0.19523900       0.38562100
   105  O          0.77450130       0.39988120       0.00024100
   106  O          0.22549870       0.89988120       0.49975900
   107  O          0.22549870       0.60011880      -0.00024100
   108  O          0.77450130       0.10011880       0.50024100
   109  N          0.43421130       0.42538120       0.76472100
   110  N          0.56578870       0.92538120       0.73527900
   111  N          0.56578870       0.57461880       0.23527900
   112  N          0.43421130       0.07461880       0.26472100
   113  H          0.47980000       0.35990000       0.77760000
   114  H          0.52020000       0.85990000       0.72240000
   115  H          0.52020000       0.64010000       0.22240000
   116  H          0.47980000       0.14010000       0.27760000
   117  C          0.32682150       0.42514140       0.67716110
   118  C          0.67317850       0.92514140       0.82283890
   119  C          0.67317850       0.57485860       0.32283890
   120  C          0.32682150       0.07485860       0.17716110
   121  C          0.30569190       0.51770160       0.61054120
   122  C          0.69430810       0.01770160       0.88945880
   123  C          0.69430810       0.48229840       0.38945880
   124  C          0.30569190       0.98229840       0.11054120
   125  H          0.36000000       0.58520000       0.62380000
   126  H          0.64000000       0.08520000       0.87620000
   127  H          0.64000000       0.41480000       0.37620000
   128  H          0.36000000       0.91480000       0.12380000
   129  C          0.20402000       0.51012190       0.52425130
   130  C          0.79598000       0.01012190       0.97574870
   131  C          0.79598000       0.48987810       0.47574870
   132  C          0.20402000      -0.01012190       0.02425130
   133  H          0.18890000       0.57350000       0.48010000
   134  H          0.81110000       0.07350000       0.01990000
   135  H          0.81110000       0.42650000       0.51990000
   136  H          0.18890000       0.92650000       0.98010000
   137  C          0.12472000       0.40982000       0.50297140
   138  C          0.87528000       0.90982000      -0.00297140
   139  C          0.87528000       0.59018000       0.49702860
   140  C          0.12472000       0.09018000       0.00297140
   141  H          0.05640000       0.40500000       0.44460000
   142  H          0.94360000       0.90500000       0.05540000
   143  H          0.94360000       0.59500000       0.55540000
   144  H          0.05640000       0.09500000       0.94460000
   145  C          0.14702000       0.31682000       0.56847160
   146  C          0.85298000       0.81682000       0.93152840
   147  C          0.85298000       0.68318000       0.43152840
   148  C          0.14702000       0.18318000       0.06847160
   149  H          0.09410000       0.24830000       0.55390000
   150  H          0.90590000       0.74830000       0.94610000
   151  H          0.90590000       0.75170000       0.44610000
   152  H          0.09410000       0.25170000       0.05390000
   153  C          0.24715190       0.32370160       0.65564130
   154  C          0.75284810       0.82370160       0.84435870
   155  C          0.75284810       0.67629840       0.34435870
   156  C          0.24715190       0.17629840       0.15564130
   157  H          0.26120000       0.26050000       0.69990000
   158  H          0.73880000       0.76050000       0.80010000
   159  H          0.73880000       0.73950000       0.30010000
   160  H          0.26120000       0.23950000       0.19990000
