data_MUDWEO03
_symmetry_space_group_name_H-M    'P1'
_symmetry_Int_Tables_number       1
loop_
_symmetry_equiv_pos_site_id
_symmetry_equiv_pos_as_xyz
1 x,y,z
_cell_length_a                   7.86502
_cell_length_b                   9.63592
_cell_length_c                   23.30405
_cell_angle_alpha                89.90101
_cell_angle_beta                 88.77701
_cell_angle_gamma                70.87701
loop_
_atom_site_label
_atom_site_type_symbol
_atom_site_fract_x
_atom_site_fract_y
_atom_site_fract_z
     1  H          0.34730000       0.15430000       0.60089000
     2  H          0.65270000       0.84570000       0.39911000
     3  H          0.17530000       0.63080000       0.50369000
     4  H          0.82470000       0.36920000       0.49631000
     5  N          0.29212000       0.21287170       0.49458800
     6  N          0.70788000       0.78712830       0.50541200
     7  N          0.34862000       0.06912000       0.60726700
     8  N          0.65138000       0.93088000       0.39273300
     9  C          0.27032000       0.07352190       0.50616800
    10  C          0.72968000       0.92647810       0.49383200
    11  C          0.30012000       0.00558190       0.56131700
    12  C          0.69988000      -0.00558190       0.43868300
    13  C          0.22702000       0.79736810       0.52110800
    14  C          0.77298000       0.20263190       0.47889200
    15  N          0.21073000       0.66357810       0.52982900
    16  N          0.78927000       0.33642190       0.47017100
    17  C          0.19692000       0.87028000       0.46735800
    18  C          0.80308000       0.12972000       0.53264200
    19  O          0.25042000       0.27001170       0.44761700
    20  O          0.74958000       0.72998830       0.55238300
    21  C          0.27412000       0.87066810       0.56638800
    22  C          0.72588000       0.12933190       0.43361200
    23  H          0.28910000       0.82630000       0.60220000
    24  H          0.71090000       0.17370000       0.39780000
    25  N          0.14562000       0.80798000       0.41721800
    26  N          0.85438000       0.19202000       0.58278200
    27  C          0.26113000       0.57948000       0.58034900
    28  C          0.73887000       0.42052000       0.41965100
    29  O          0.35722000       0.27094160       0.53143700
    30  O          0.64278000       0.72905840       0.46856300
    31  O          0.14422000       0.86848000       0.37094700
    32  O          0.85578000       0.13152000       0.62905300
    33  C          0.21872000       0.00522000       0.46120800
    34  C          0.78128000      -0.00522000       0.53879200
    35  H          0.19810000       0.05150000       0.42580000
    36  H          0.80190000       0.94850000       0.57420000
    37  C          0.37873000       0.00862000       0.66324800
    38  C          0.62127000      -0.00862000       0.33675200
    39  O          0.10212000       0.69678000       0.42201700
    40  O          0.89788000       0.30322000       0.57798300
    41  C          0.43693000       0.53648000       0.59820100
    42  C          0.56307000       0.46352000       0.40179900
    43  H          0.52260000       0.56550000       0.57790000
    44  H          0.47740000       0.43450000       0.42210000
    45  C          0.13553000       0.53458000       0.60990100
    46  C          0.86447000       0.46542000       0.39009900
    47  H          0.01680000       0.56390000       0.59810000
    48  H          0.98320000       0.43610000       0.40190000
    49  C          0.48403000       0.45068000       0.64607110
    50  C          0.51597000       0.54932000       0.35392890
    51  H          0.60160000       0.42340000       0.65870000
    52  H          0.39840000       0.57660000       0.34130000
    53  C          0.35984000       0.40468000       0.67541110
    54  C          0.64016000       0.59532000       0.32458890
    55  H          0.39310000       0.34570000       0.70760000
    56  H          0.60690000       0.65430000       0.29240000
    57  C          0.55404000       0.83626000       0.72968140
    58  C          0.44596000       0.16374000       0.27031860
    59  H          0.65150000       0.75320000       0.73760000
    60  H          0.34850000       0.24680000       0.26240000
    61  C          0.26444000       0.07663000       0.70741100
    62  C          0.73556000       0.92337000       0.29258900
    63  H          0.16340000       0.15710000       0.69980000
    64  H          0.83660000       0.84290000       0.30020000
    65  C          0.29655000       0.02804000       0.76221120
    66  C          0.70345000       0.97196000       0.23778880
    67  H          0.21980000       0.07670000       0.79200000
    68  H          0.78020000       0.92330000       0.20800000
    69  C          0.18624000       0.44597000       0.65699110
    70  C          0.81376000       0.55403000       0.34300890
    71  H          0.10190000       0.41380000       0.67660000
    72  H          0.89810000       0.58620000       0.32340000
    73  C          0.52403000       0.88657000       0.67395110
    74  C          0.47597000       0.11343000       0.32604890
    75  H          0.60130000       0.83840000       0.64420000
    76  H          0.39870000       0.16160000       0.35580000
    77  C          0.44026000       0.90866000       0.77318120
    78  C          0.55974000       0.09134000       0.22681880
    79  H          0.46200000       0.87560000       0.81070000
    80  H          0.53800000       0.12440000       0.18930000
    81  H          0.64530000       0.34830000       0.95699000
    82  H          0.35470000       0.65170000       0.04301000
    83  H          0.98330000       0.67470000       0.95831000
    84  H          0.01670000       0.32530000       0.04169000
    85  O          0.49452000       0.38013170       0.02937600
    86  O          0.50548000       0.61986830       0.97062400
    87  C          0.64283000       0.13202000       0.02012800
    88  C          0.35717000       0.86798000       0.97987200
    89  N          0.51932000       0.25666190       0.04934700
    90  N          0.48068000       0.74333810       0.95065300
    91  O          0.44102000       0.23798170       0.09307600
    92  O          0.55898000       0.76201830       0.90692400
    93  N          0.96643000       0.74718000       0.93848200
    94  N          0.03357000       0.25282000       0.06151800
    95  N          0.69643000       0.27042000       0.93781300
    96  N          0.30357000       0.72958000       0.06218700
    97  C          0.72333000       0.14162000       0.96523200
    98  C          0.27667000       0.85838000       0.03476800
    99  C          0.83403000       0.00972000       0.94127200
   100  C          0.16597000      -0.00972000       0.05872800
   101  H          0.89260000       0.01390000       0.90660000
   102  H          0.10740000      -0.01390000       0.09340000
   103  C          0.78093000       0.87008000       0.02069800
   104  C          0.21907000       0.12992000       0.97930200
   105  O          0.89093000       0.61823820       0.03159700
   106  O          0.10907000       0.38176180       0.96840300
   107  C          0.67533000      -0.00172000       0.04622800
   108  C          0.32467000       0.00172000       0.95377200
   109  H          0.62410000      -0.00540000       0.08230000
   110  H          0.37590000       0.00540000       0.91770000
   111  C          0.86303000       0.87178000       0.96558200
   112  C          0.13697000       0.12822000       0.03441800
   113  N          0.79703000       0.73688000       0.05195900
   114  N          0.20297000       0.26312000       0.94804100
   115  C          0.74013000       0.28822000       0.87902200
   116  C          0.25987000       0.71178000       0.12097800
   117  C          0.03423000       0.73198000       0.88154900
   118  C          0.96577000       0.26802000       0.11845100
   119  O          0.71743000       0.74508000       0.09784900
   120  O          0.28257000       0.25492000       0.90215100
   121  C          0.73883000       0.23083000       0.77943100
   122  C          0.26117000       0.76917000       0.22056900
   123  H          0.71190000       0.17600000       0.75030000
   124  H          0.28810000       0.82400000       0.24970000
   125  C          0.93653000       0.80738000       0.83651900
   126  C          0.06347000       0.19262000       0.16348100
   127  H          0.82030000       0.87160000       0.84310000
   128  H          0.17970000       0.12840000       0.15690000
   129  C          0.81893000       0.39252000       0.86561900
   130  C          0.18107000       0.60748000       0.13438100
   131  H          0.84530000       0.44820000       0.89450000
   132  H          0.15470000       0.55180000       0.10550000
   133  C          0.69633000       0.20932000       0.83605100
   134  C          0.30367000       0.79068000       0.16394900
   135  H          0.63830000       0.14170000       0.84490000
   136  H          0.36170000       0.85830000       0.15510000
   137  C          0.82044000       0.33263000       0.76637890
   138  C          0.17956000       0.66737000       0.23362110
   139  H          0.85000000       0.34640000       0.72840000
   140  H          0.15000000       0.65360000       0.27160000
   141  C          0.17784000       0.69247000       0.77094870
   142  C          0.82216000       0.30753000       0.22905130
   143  H          0.22780000       0.68210000       0.73400000
   144  H          0.77220000       0.31790000       0.26600000
   145  C          0.20323000       0.63018000       0.87048880
   146  C          0.79677000       0.36982000       0.12951120
   147  H          0.26910000       0.57500000       0.90020000
   148  H          0.73090000       0.42500000       0.09980000
   149  C          0.00994000       0.78827000       0.78158890
   150  C         -0.00994000       0.21173000       0.21841110
   151  H          0.94360000       0.84160000       0.75150000
   152  H          0.05640000       0.15840000       0.24850000
   153  C          0.85833000       0.41383000       0.80897880
   154  C          0.14167000       0.58617000       0.19102120
   155  H          0.91150000       0.48430000       0.79980000
   156  H          0.08850000       0.51570000       0.20020000
   157  C          0.27274000       0.61157000       0.81515850
   158  C          0.72726000       0.38843000       0.18484150
   159  H          0.38560000       0.54300000       0.80770000
   160  H          0.61440000       0.45700000       0.19230000
