data_MUJXOH01
_symmetry_space_group_name_H-M    'P1'
_symmetry_Int_Tables_number       1
loop_
_symmetry_equiv_pos_site_id
_symmetry_equiv_pos_as_xyz
1 x,y,z
_cell_length_a                   17.73973
_cell_length_b                   7.054501
_cell_length_c                   18.91494
_cell_angle_alpha                90.0
_cell_angle_beta                 93.2182
_cell_angle_gamma                90.0
loop_
_atom_site_label
_atom_site_type_symbol
_atom_site_fract_x
_atom_site_fract_y
_atom_site_fract_z
     1  O          0.30409700       0.61796190       0.99004300
     2  O          0.19590300       0.11796190       0.50995700
     3  O          0.69590300       0.38203810       0.00995700
     4  O          0.80409700       0.88203810       0.49004300
     5  O          0.51969900       0.79872000       0.87659200
     6  O          0.98030100       0.29872000       0.62340800
     7  O          0.48030100       0.20128000       0.12340800
     8  O          0.01969900       0.70128000       0.37659200
     9  N          0.48985800       0.72632000       0.05926800
    10  N          0.01014200       0.22632000       0.44073200
    11  N          0.51014200       0.27368000       0.94073200
    12  N          0.98985800       0.77368000       0.55926800
    13  N          0.40518100       0.70692000       0.92269100
    14  N          0.09481900       0.20692000       0.57730900
    15  N          0.59481900       0.29308000       0.07730900
    16  N          0.90518100       0.79308000       0.42269100
    17  C          0.36233100       0.62883000       0.10226100
    18  C          0.13766900       0.12883000       0.39773900
    19  C          0.63766900       0.37117000       0.89773900
    20  C          0.86233100       0.87117000       0.60226100
    21  C          0.41657100       0.67812000       0.05171100
    22  C          0.08342900       0.17812000       0.44828900
    23  C          0.58342900       0.32188000       0.94828900
    24  C          0.91657100       0.82188000       0.55171100
    25  C          0.51958100       0.76442000      -0.00266100
    26  C          0.98041900       0.26442000       0.50266100
    27  C          0.48041900       0.23558000       0.00266100
    28  C          0.01958100       0.73558000       0.49733900
    29  C          0.37754100       0.67033000       0.98480890
    30  C          0.12245900       0.17033000       0.51519110
    31  C          0.62245900       0.32967000       0.01519110
    32  C          0.87754100       0.82967000       0.48480890
    33  C          0.29516100       0.59483000       0.06223110
    34  C          0.20483900       0.09483000       0.43776890
    35  C          0.70483900       0.40517000       0.93776890
    36  C          0.79516100       0.90517000       0.56223110
    37  C          0.59467110       0.82193000       0.98010900
    38  C          0.90532890       0.32193000       0.51989100
    39  C          0.40532890       0.17807000       0.01989100
    40  C          0.09467110       0.67807000       0.48010900
    41  C          0.47701120       0.75403000       0.93236890
    42  C          0.02298880       0.25403000       0.56763110
    43  C          0.52298880       0.24597000       0.06763110
    44  C          0.97701120       0.74597000       0.43236890
    45  C          0.36300110       0.61473000       0.17542110
    46  C          0.13699890       0.11473000       0.32457890
    47  C          0.63699890       0.38527000       0.82457890
    48  C          0.86300110       0.88527000       0.67542110
    49  H          0.40691900       0.63821700       0.20321600
    50  H          0.09308100       0.13821700       0.29678400
    51  H          0.59308100       0.36178300       0.79678400
    52  H          0.90691900       0.86178300       0.70321600
    53  C          0.59147120       0.84003000       0.90700890
    54  C          0.90852880       0.34003000       0.59299110
    55  C          0.40852880       0.15997000       0.09299110
    56  C          0.09147120       0.65997000       0.40700890
    57  C          0.66243110       0.85983000       0.01859120
    58  C          0.83756890       0.35983000       0.48140880
    59  C          0.33756890       0.14017000       0.98140880
    60  C          0.16243110       0.64017000       0.51859120
    61  H          0.66588700       0.85005600       0.06770200
    62  H          0.83411300       0.35005600       0.43229800
    63  H          0.33411300       0.14994400       0.93229800
    64  H          0.16588700       0.64994400       0.56770200
    65  C          0.22877110       0.54553000       0.09171130
    66  C          0.27122890       0.04553000       0.40828870
    67  C          0.77122890       0.45447000       0.90828870
    68  C          0.72877110       0.95447000       0.59171130
    69  H          0.18475100       0.52355500       0.06386700
    70  H          0.31524900       0.02355500       0.43613300
    71  H          0.81524900       0.47644500       0.93613300
    72  H          0.68475100       0.97644500       0.56386700
    73  C          0.72426120       0.91203000       0.98173870
    74  C          0.77573880       0.41203000       0.51826130
    75  C          0.27573880       0.08797000       0.01826130
    76  C          0.22426120       0.58797000       0.48173870
    77  H          0.77006400       0.93706900       0.00630900
    78  H          0.72993600       0.43706900       0.49369100
    79  H          0.22993600       0.06293100      -0.00630900
    80  H          0.27006400       0.56293100       0.50630900
    81  C          0.23052120       0.53003000       0.16428130
    82  C          0.26947880       0.03003000       0.33571870
    83  C          0.76947880       0.46997000       0.83571870
    84  C          0.73052120       0.96997000       0.66428130
    85  H          0.18686000       0.49564900       0.18611200
    86  H          0.31314000      -0.00435100       0.31388800
    87  H          0.81314000       0.50435100       0.81388800
    88  H          0.68686000       0.00435100       0.68611200
    89  C          0.29706120       0.56524000       0.20600120
    90  C          0.20293880       0.06524000       0.29399880
    91  C          0.70293880       0.43476000       0.79399880
    92  C          0.79706120       0.93476000       0.70600120
    93  H          0.29663900       0.55489600       0.25499800
    94  H          0.20336100       0.05489600       0.24500200
    95  H          0.70336100       0.44510400       0.74500200
    96  H          0.79663900       0.94510400       0.75499800
    97  C          0.71875140       0.92763000       0.90839860
    98  C          0.78124860       0.42763000       0.59160140
    99  C          0.28124860       0.07237000       0.09160140
   100  C          0.21875140       0.57237000       0.40839860
   101  H          0.76119500       0.96325900       0.88491200
   102  H          0.73880500       0.46325900       0.61508800
   103  H          0.23880500       0.03674100       0.11508800
   104  H          0.26119500       0.53674100       0.38491200
   105  C          0.65222140       0.89193000       0.86933870
   106  C          0.84777860       0.39193000       0.63066130
   107  C          0.34777860       0.10807000       0.13066130
   108  C          0.15222140       0.60807000       0.36933870
   109  H          0.64867800       0.90233700       0.82025400
   110  H          0.85132200       0.40233700       0.67974600
   111  H          0.35132200       0.09766300       0.17974600
   112  H          0.14867800       0.59766300       0.32025400
   113  O          0.51633700       0.74262000       0.28745700
   114  O          0.98366300       0.24262000       0.21254300
   115  O          0.48366300       0.25738000       0.71254300
   116  O          0.01633700       0.75738000       0.78745700
   117  O          0.40512700       0.80292000       0.50357800
   118  O          0.09487300       0.30292000      -0.00357800
   119  O          0.59487300       0.19708000       0.49642200
   120  O          0.90512700       0.69708000       0.00357800
   121  N          0.59481800       0.70192000       0.46391800
   122  N          0.90518200       0.20192000       0.03608200
   123  N          0.40518200       0.29808000       0.53608200
   124  N          0.09481800       0.79808000       0.96391800
   125  N          0.44973900       0.78092000       0.38969900
   126  N          0.05026100       0.28092000       0.11030100
   127  N          0.55026100       0.21908000       0.61030100
   128  N          0.94973900       0.71908000       0.88969900
   129  C          0.58482900       0.71052000       0.39333100
   130  C          0.91517100       0.21052000       0.10666900
   131  C          0.41517100       0.28948000       0.60666900
   132  C          0.08482900       0.78948000       0.89333100
   133  C          0.63527100       0.67933000       0.33729100
   134  C          0.86472900       0.17933000       0.16270900
   135  C          0.36472900       0.32067000       0.66270900
   136  C          0.13527100       0.82067000       0.83729100
   137  C          0.53086100       0.73392000       0.49679100
   138  C          0.96913900       0.23392000       0.00320900
   139  C          0.46913900       0.26608000       0.50320900
   140  C          0.03086100       0.76608000      -0.00320900
   141  C          0.51472100       0.73833000       0.57088110
   142  C          0.98527900       0.23833000       0.92911890
   143  C          0.48527900       0.26167000       0.42911890
   144  C          0.01472100       0.76167000       0.07088110
   145  C          0.51337100       0.74802000       0.35894100
   146  C          0.98662900       0.24802000       0.14105900
   147  C          0.48662900       0.25198000       0.64105900
   148  C          0.01337100       0.75198000       0.85894100
   149  C          0.59079110       0.69633000       0.27460110
   150  C          0.90920890       0.19633000       0.22539890
   151  C          0.40920890       0.30367000       0.72539890
   152  C          0.09079110       0.80367000       0.77460110
   153  C          0.46218100       0.77333000       0.45918110
   154  C          0.03781900       0.27333000       0.04081890
   155  C          0.53781900       0.22667000       0.54081890
   156  C          0.96218100       0.72667000       0.95918110
   157  C          0.55555120       0.70973000       0.63455110
   158  C          0.94444880       0.20973000       0.86544890
   159  C          0.44444880       0.29027000       0.36544890
   160  C          0.05555120       0.79027000       0.13455110
   161  H          0.60654500       0.67867200       0.63540300
   162  H          0.89345500       0.17867200       0.86459700
   163  H          0.39345500       0.32132800       0.36459700
   164  H          0.10654500       0.82132800       0.13540300
   165  C          0.43822110       0.78273000       0.57167120
   166  C          0.06177890       0.28273000       0.92832880
   167  C          0.56177890       0.21727000       0.42832880
   168  C          0.93822110       0.71727000       0.07167120
   169  C          0.71116110       0.62993000       0.33367110
   170  C          0.78883890       0.12993000       0.16632890
   171  C          0.28883890       0.37007000       0.66632890
   172  C          0.21116110       0.87007000       0.83367110
   173  H          0.74278600       0.62191000       0.37447300
   174  H          0.75721400       0.12191000       0.12552700
   175  H          0.25721400       0.37809000       0.62552700
   176  H          0.24278600       0.87809000       0.87447300
   177  C          0.61609120       0.66003000       0.20850110
   178  C          0.88390880       0.16003000       0.29149890
   179  C          0.38390880       0.33997000       0.79149890
   180  C          0.11609120       0.83997000       0.70850110
   181  H          0.58478700       0.67121100       0.16759700
   182  H          0.91521300       0.17121100       0.33240300
   183  H          0.41521300       0.32878900       0.83240300
   184  H          0.08478700       0.82878900       0.66759700
   185  C          0.51880130       0.72823000       0.69709120
   186  C          0.98119870       0.22823000       0.80290880
   187  C          0.48119870       0.27177000       0.30290880
   188  C          0.01880130       0.77177000       0.19709120
   189  H          0.54547700       0.70895000       0.74023200
   190  H          0.95452300       0.20895000       0.75976800
   191  H          0.45452300       0.29105000       0.25976800
   192  H          0.04547700       0.79105000       0.24023200
   193  C          0.73805120       0.59313000       0.26800120
   194  C          0.76194880       0.09313000       0.23199880
   195  C          0.26194880       0.40687000       0.73199880
   196  C          0.23805120       0.90687000       0.76800120
   197  H          0.78838600       0.55925700       0.26463500
   198  H          0.71161400       0.05925700       0.23536500
   199  H          0.21161400       0.44074300       0.73536500
   200  H          0.28838600       0.94074300       0.76463500
   201  C          0.69098130       0.60593000       0.20657120
   202  C          0.80901870       0.10593000       0.29342880
   203  C          0.30901870       0.39407000       0.79342880
   204  C          0.19098130       0.89407000       0.70657120
   205  H          0.71041400       0.57734100       0.16318300
   206  H          0.78958600       0.07734100       0.33681700
   207  H          0.28958600       0.42265900       0.83681700
   208  H          0.21041400       0.92265900       0.66318300
   209  C          0.40053120       0.80343000       0.63302130
   210  C          0.09946880       0.30343000       0.86697870
   211  C          0.59946880       0.19657000       0.36697870
   212  C          0.90053120       0.69657000       0.13302130
   213  H          0.34955500       0.83458700       0.63213100
   214  H          0.15044500       0.33458700       0.86786900
   215  H          0.65044500       0.16541300       0.36786900
   216  H          0.84955500       0.66541300       0.13213100
   217  C          0.44265140       0.77513000       0.69603130
   218  C          0.05734860       0.27513000       0.80396870
   219  C          0.55734860       0.22487000       0.30396870
   220  C          0.94265140       0.72487000       0.19603130
   221  H          0.41941900       0.78785200       0.73864700
   222  H          0.08058100       0.28785200       0.76135300
   223  H          0.58058100       0.21214800       0.26135300
   224  H          0.91941900       0.71214800       0.23864700
