data_MUJXOH
_symmetry_space_group_name_H-M    'P1'
_symmetry_Int_Tables_number       1
loop_
_symmetry_equiv_pos_site_id
_symmetry_equiv_pos_as_xyz
1 x,y,z
_cell_length_a                   14.28407
_cell_length_b                   6.07592
_cell_length_c                   14.32756
_cell_angle_alpha                90.0
_cell_angle_beta                 110.7575
_cell_angle_gamma                90.0
loop_
_atom_site_label
_atom_site_type_symbol
_atom_site_fract_x
_atom_site_fract_y
_atom_site_fract_z
     1  O          0.29488900       0.21065180       0.37638800
     2  O          0.20511100       0.71065180       0.12361200
     3  O          0.70511100       0.78934820       0.62361200
     4  O          0.79488900       0.28934820       0.87638800
     5  O          0.45084800       0.84030170       0.54640800
     6  O          0.04915200       0.34030170       0.95359200
     7  O          0.54915200       0.15969830       0.45359200
     8  O          0.95084800       0.65969830       0.04640800
     9  N          0.27305100       0.47966190       0.58862900
    10  N          0.22694900      -0.02033810       0.91137100
    11  N          0.72694900       0.52033810       0.41137100
    12  N          0.77305100       0.02033810       0.08862900
    13  N          0.38112100       0.52942000       0.45099900
    14  N          0.11887900       0.02942000       0.04900100
    15  N          0.61887900       0.47058000       0.54900100
    16  N          0.88112100       0.97058000       0.95099900
    17  C          0.37193110       0.82692000       0.66201110
    18  C          0.12806890       0.32692000       0.83798890
    19  C          0.62806890       0.17308000       0.33798890
    20  C          0.87193110       0.67308000       0.16201110
    21  C          0.31721120       0.37102000       0.44810110
    22  C          0.18278880       0.87102000       0.05189890
    23  C          0.68278880       0.62898000       0.55189890
    24  C          0.81721120       0.12898000       0.94810110
    25  C          0.26386110       0.34182000       0.51304100
    26  C          0.23613890       0.84182000       0.98695900
    27  C          0.73613890       0.65818000       0.48695900
    28  C          0.76386110       0.15818000       0.01304100
    29  C          0.35010110       0.90843000       0.74277110
    30  C          0.14989890       0.40843000       0.75722890
    31  C          0.64989890       0.09157000       0.25722890
    32  C          0.85010110       0.59157000       0.24277110
    33  H          0.30520900       0.83620800       0.76596700
    34  H          0.19479100       0.33620800       0.73403300
    35  H          0.69479100       0.16379200       0.23403300
    36  H          0.80520900       0.66379200       0.26596700
    37  C          0.33848110       0.64192000       0.59472100
    38  C          0.16151890       0.14192000       0.90527900
    39  C          0.66151890       0.35808000       0.40527900
    40  C          0.83848110       0.85808000       0.09472100
    41  C          0.22568120       0.07472000       0.39612110
    42  C          0.27431880       0.57472000       0.10387890
    43  C          0.77431880       0.92528000       0.60387890
    44  C          0.72568120       0.42528000       0.89612110
    45  C          0.20377110       0.14632000       0.47845100
    46  C          0.29622890       0.64632000       0.02154900
    47  C          0.79622890       0.85368000       0.52154900
    48  C          0.70377110       0.35368000       0.97845100
    49  C          0.38941110       0.66112000       0.52679110
    50  C          0.11058890       0.16112000       0.97320890
    51  C          0.61058890       0.33888000       0.47320890
    52  C          0.88941110       0.83888000       0.02679110
    53  C          0.43939120       0.94082000       0.62911110
    54  C          0.06060880       0.44082000       0.87088890
    55  C          0.56060880       0.05918000       0.37088890
    56  C          0.93939120       0.55918000       0.12911110
    57  C          0.39744120       0.10083000       0.78768110
    58  C          0.10255880       0.60083000       0.71231890
    59  C          0.60255880       0.89917000       0.21231890
    60  C          0.89744120       0.39917000       0.28768110
    61  H          0.38391000       0.15806900       0.84175800
    62  H          0.11609000       0.65806900       0.65824200
    63  H          0.61609000       0.84193100       0.15824200
    64  H          0.88391000       0.34193100       0.34175800
    65  C          0.18453130       0.88937000       0.34097110
    66  C          0.31546870       0.38937000       0.15902890
    67  C          0.81546870       0.11063000       0.65902890
    68  C          0.68453130       0.61063000       0.84097110
    69  H          0.20084400       0.84567000       0.28641400
    70  H          0.29915600       0.34567000       0.21358600
    71  H          0.79915600       0.15433000       0.71358600
    72  H          0.70084400       0.65433000       0.78641400
    73  C          0.46484120       0.20992000       0.75331120
    74  C          0.03515880       0.70992000       0.74668880
    75  C          0.53515880       0.79008000       0.24668880
    76  C          0.96484120       0.29008000       0.25331120
    77  H          0.49544200       0.33797400       0.78532900
    78  H          0.00455800       0.83797400       0.71467100
    79  H          0.50455800       0.66202600       0.21467100
    80  H         -0.00455800       0.16202600       0.28532900
    81  C          0.11717120       0.77227000       0.37209120
    82  C          0.38282880       0.27227000       0.12790880
    83  C          0.88282880       0.22773000       0.62790880
    84  C          0.61717120       0.72773000       0.87209120
    85  H          0.08695400       0.64686500       0.33716800
    86  H          0.41304600       0.14686500       0.16283200
    87  H          0.91304600       0.35313500       0.66283200
    88  H          0.58695400       0.85313500       0.83716800
    89  C          0.13661110       0.02572000       0.50838110
    90  C          0.36338890       0.52572000      -0.00838110
    91  C          0.86338890       0.97428000       0.49161890
    92  C          0.63661110       0.47428000       0.00838110
    93  H          0.12061200       0.06900200       0.56317600
    94  H          0.37938800       0.56900200       0.93682400
    95  H          0.87938800       0.93099800       0.43682400
    96  H          0.62061200       0.43099800       0.06317600
    97  C          0.09403120       0.83847000       0.45409110
    98  C          0.40596880       0.33847000       0.04590890
    99  C          0.90596880       0.16153000       0.54590890
   100  C          0.59403120       0.66153000       0.95409110
   101  H          0.04902500       0.75580900       0.47314900
   102  H          0.45097500       0.25580900       0.02685100
   103  H          0.95097500       0.24419100       0.52685100
   104  H          0.54902500       0.74419100       0.97314900
   105  C          0.48748120       0.13282000       0.67277120
   106  C          0.01251880       0.63282000       0.82722880
   107  C          0.51251880       0.86718000       0.32722880
   108  C         -0.01251880       0.36718000       0.17277120
   109  H          0.53217800       0.20544300       0.64946900
   110  H          0.96782200       0.70544300       0.85053100
   111  H          0.46782200       0.79455700       0.35053100
   112  H          0.03217800       0.29455700       0.14946900
