data_MUJXOH05
_symmetry_space_group_name_H-M    'P1'
_symmetry_Int_Tables_number       1
loop_
_symmetry_equiv_pos_site_id
_symmetry_equiv_pos_as_xyz
1 x,y,z
_cell_length_a                   24.357212
_cell_length_b                   3.85022
_cell_length_c                   24.826011
_cell_angle_alpha                90.0
_cell_angle_beta                 90.0
_cell_angle_gamma                90.0
loop_
_atom_site_label
_atom_site_type_symbol
_atom_site_fract_x
_atom_site_fract_y
_atom_site_fract_z
     1  O          0.60618140       0.67771200       0.72520160
     2  O          0.39381860       0.32228800       0.22520160
     3  O          0.10618140       0.82228800       0.72520160
     4  O          0.89381860       0.17771200       0.22520160
     5  O          0.65761170       0.25571000       0.55648160
     6  O          0.34238830       0.74429000       0.05648160
     7  O          0.15761170       0.24429000       0.55648160
     8  O          0.84238830       0.75571000       0.05648160
     9  N          0.73614170       0.66251100       0.65984170
    10  N          0.26385830       0.33748900       0.15984170
    11  N          0.23614170       0.83748900       0.65984170
    12  N          0.76385830       0.16251100       0.15984170
    13  C          0.70922000       0.26011400       0.53242000
    14  C          0.29078000       0.73988600       0.03242000
    15  C          0.20922000       0.23988600       0.53242000
    16  C          0.79078000       0.76011400       0.03242000
    17  N          0.62322000       0.45041400       0.63912000
    18  N          0.37678000       0.54958600       0.13912000
    19  N          0.12322000       0.04958600       0.63912000
    20  N          0.87678000       0.95041400       0.13912000
    21  C          0.64062000       0.60341500       0.68362000
    22  C          0.35938000       0.39658500       0.18362000
    23  C          0.14062000       0.89658500       0.68362000
    24  C          0.85938000       0.10341500       0.18362000
    25  C          0.66462000       0.40711400       0.60552000
    26  C          0.33538000       0.59288600       0.10552000
    27  C          0.16462000       0.09288600       0.60552000
    28  C          0.83538000       0.90711400       0.10552000
    29  C          0.72012000       0.50611500       0.61442000
    30  C          0.27988000       0.49388500       0.11442000
    31  C          0.22012000      -0.00611500       0.61442000
    32  C          0.77988000       0.00611500       0.11442000
    33  C          0.69332000       0.85301400       0.74822000
    34  C          0.30668000       0.14698600       0.24822000
    35  C          0.19332000       0.64698600       0.74822000
    36  C          0.80668000       0.35301400       0.24822000
    37  C          0.80293000       0.43191500       0.54842000
    38  C          0.19707000       0.56808500       0.04842000
    39  C          0.30293000       0.06808500       0.54842000
    40  C          0.69707000       0.93191500       0.04842000
    41  H          0.83015300       0.52740100       0.56999100
    42  H          0.16984700       0.47259900       0.06999100
    43  H          0.33015300      -0.02740100       0.56999100
    44  H          0.66984700       0.02740100       0.06999100
    45  C          0.74912000       0.40681400       0.56632000
    46  C          0.25088000       0.59318600       0.06632000
    47  C          0.24912000       0.09318600       0.56632000
    48  C          0.75088000       0.90681400       0.06632000
    49  C          0.69502000       0.70711500       0.69512000
    50  C          0.30498000       0.29288500       0.19512000
    51  C          0.19502000       0.79288500       0.69512000
    52  C          0.80498000       0.20711500       0.19512000
    53  C          0.73212000      -0.00498400       0.78362000
    54  C          0.26788000       0.00498400       0.28362000
    55  C          0.23212000       0.50498400       0.78362000
    56  C          0.76788000       0.49501600       0.28362000
    57  H          0.76881500       0.01591900       0.77382000
    58  H          0.23118500      -0.01591900       0.27382000
    59  H          0.26881500       0.48408100       0.77382000
    60  H          0.73118500       0.51591900       0.27382000
    61  C          0.62083000       0.94191700       0.81423000
    62  C          0.37917000       0.05808300       0.31423000
    63  C          0.12083000       0.55808300       0.81423000
    64  C          0.87917000       0.44191700       0.31423000
    65  H          0.58410800       0.92441100       0.82419700
    66  H          0.41589200       0.07558900       0.32419700
    67  H          0.08410800       0.57558900       0.82419700
    68  H          0.91589200       0.42441100       0.32419700
    69  C          0.81453000       0.31161600       0.49793000
    70  C          0.18547000       0.68838400      -0.00207000
    71  C          0.31453000       0.18838400       0.49793000
    72  C          0.68547000       0.81161600      -0.00207000
    73  H          0.85031700       0.32638000       0.48515800
    74  H          0.14968300       0.67362000       0.98515800
    75  H          0.35031700       0.17362000       0.48515800
    76  H          0.64968300       0.82638000       0.98515800
    77  C          0.63902000       0.83271600       0.76462000
    78  C          0.36098000       0.16728400       0.26462000
    79  C          0.13902000       0.66728400       0.76462000
    80  C          0.86098000       0.33271600       0.26462000
    81  C          0.72003000       0.14011600       0.48192000
    82  C          0.27997000       0.85988400       0.98192000
    83  C          0.22003000       0.35988400       0.48192000
    84  C          0.77997000       0.64011600       0.98192000
    85  H          0.69285400       0.04543000       0.46001700
    86  H          0.30714600       0.95457000       0.96001700
    87  H          0.19285400       0.45457000       0.46001700
    88  H          0.80714600       0.54543000       0.96001700
    89  C          0.65953000       0.07761600       0.84813000
    90  C          0.34047000       0.92238400       0.34813000
    91  C          0.15953000       0.42238400       0.84813000
    92  C          0.84047000       0.57761600       0.34813000
    93  H          0.64885700       0.15551300       0.88193200
    94  H          0.35114300       0.84448700       0.38193200
    95  H          0.14885700       0.34448700       0.88193200
    96  H          0.85114300       0.65551300       0.38193200
    97  C          0.71413000       0.10211600       0.83333000
    98  C          0.28587000       0.89788400       0.33333000
    99  C          0.21413000       0.39788400       0.83333000
   100  C          0.78587000       0.60211600       0.33333000
   101  H          0.73920500       0.19369100       0.85761400
   102  H          0.26079500       0.80630900       0.35761400
   103  H          0.23920500       0.30630900       0.85761400
   104  H          0.76079500       0.69369100       0.35761400
   105  C          0.77453000       0.16821600       0.46493000
   106  C          0.22547000       0.83178400       0.96493000
   107  C          0.27453000       0.33178400       0.46493000
   108  C          0.72547000       0.66821600       0.96493000
   109  H          0.78418700       0.08889200       0.43085700
   110  H          0.21581300       0.91110800       0.93085700
   111  H          0.28418700       0.41110800       0.43085700
   112  H          0.71581300       0.58889200       0.93085700
   113  O          0.60808180       0.54641200       0.43816170
   114  O          0.39191820       0.45358800       0.93816170
   115  O          0.10808180       0.95358800       0.43816170
   116  O          0.89191820       0.04641200       0.93816170
   117  O          0.64855160       0.02791300       0.27274190
   118  O          0.35144840      -0.02791300       0.77274190
   119  O          0.14855160       0.47208700       0.27274190
   120  O          0.85144840       0.52791300       0.77274190
   121  N          0.52061180       0.19751200       0.33662000
   122  N          0.47938820       0.80248800       0.83662000
   123  N          0.02061180       0.30248800       0.33662000
   124  N          0.97938820       0.69751200       0.83662000
   125  N          0.63722000       0.29601500       0.35692000
   126  N          0.36278000       0.70398500       0.85692000
   127  N          0.13722000       0.20398500       0.35692000
   128  N          0.86278000       0.79601500       0.85692000
   129  C          0.51422000       0.48451500       0.42842000
   130  C          0.48578000       0.51548500       0.92842000
   131  C          0.01422000       0.01548500       0.42842000
   132  C          0.98578000      -0.01548500       0.92842000
   133  C          0.54122000       0.34471500       0.38122000
   134  C          0.45878000       0.65528500       0.88122000
   135  C          0.04122000       0.15528500       0.38122000
   136  C          0.95878000       0.84471500       0.88122000
   137  C          0.56002000       0.09841400       0.30192000
   138  C          0.43998000       0.90158600       0.80192000
   139  C          0.06002000       0.40158600       0.30192000
   140  C          0.93998000       0.59841400       0.80192000
   141  C          0.61273000       0.89738300       0.23412000
   142  C          0.38727000       0.10261700       0.73412000
   143  C          0.11273000       0.60261700       0.23412000
   144  C          0.88727000       0.39738300       0.73412000
   145  C          0.54863000       0.75071600       0.51113000
   146  C          0.45137000       0.24928400       0.01113000
   147  C          0.04863000       0.74928400       0.51113000
   148  C          0.95137000       0.25071600       0.01113000
   149  H          0.57776200       0.82852300       0.53204100
   150  H          0.42223800       0.17147700       0.03204100
   151  H          0.07776200       0.67147700       0.53204100
   152  H          0.92223800       0.32852300       0.03204100
   153  C          0.51663000       0.81778400       0.21583000
   154  C          0.48337000       0.18221600       0.71583000
   155  C          0.01663000       0.68221600       0.21583000
   156  C          0.98337000       0.31778400       0.71583000
   157  H          0.47985400       0.83627700       0.22569800
   158  H          0.52014600       0.16372300       0.72569800
   159  H          0.97985400       0.66372300       0.22569800
   160  H          0.02014600       0.33627700       0.72569800
   161  C          0.46053000       0.52021600       0.44663000
   162  C          0.53947000       0.47978400       0.94663000
   163  C          0.96053000      -0.02021600       0.44663000
   164  C          0.03947000       0.02021600       0.94663000
   165  H          0.43113100       0.44635300       0.42553000
   166  H          0.56886900       0.55364700       0.92553000
   167  H          0.93113100       0.05364700       0.42553000
   168  H          0.06886900       0.94635300       0.92553000
   169  C          0.59742000       0.38721700       0.38943000
   170  C          0.40258000       0.61278300       0.88943000
   171  C          0.09742000       0.11278300       0.38943000
   172  C          0.90258000       0.88721700       0.88943000
   173  C          0.55662000       0.60021600       0.46113000
   174  C          0.44338000       0.39978400       0.96113000
   175  C          0.05662000       0.89978400       0.46113000
   176  C          0.94338000       0.10021600       0.96113000
   177  C          0.55802000       0.93258500       0.25012000
   178  C          0.44198000       0.06741500       0.75012000
   179  C          0.05802000       0.56741500       0.25012000
   180  C          0.94198000       0.43258500       0.75012000
   181  C          0.49553000       0.77851600       0.52793000
   182  C          0.50447000       0.22148400       0.02793000
   183  C         -0.00447000       0.72148400       0.52793000
   184  C          0.00447000       0.27851600       0.02793000
   185  H          0.48851100       0.87544200       0.56147600
   186  H          0.51148900       0.12455800       0.06147600
   187  H          0.98851100       0.62455800       0.56147600
   188  H          0.01148900       0.37544200       0.06147600
   189  C          0.61632000       0.14901600       0.31353000
   190  C          0.38368000       0.85098400       0.81353000
   191  C          0.11632000       0.35098400       0.31353000
   192  C          0.88368000       0.64901600       0.81353000
   193  C          0.45153000       0.66831700       0.49693000
   194  C          0.54847000       0.33168300      -0.00307000
   195  C          0.95153000       0.83168300       0.49693000
   196  C          0.04847000       0.16831700      -0.00307000
   197  H          0.41583500       0.69339000       0.50981800
   198  H          0.58416500       0.30661000       0.00981800
   199  H          0.91583500       0.80661000       0.50981800
   200  H          0.08416500       0.19339000       0.00981800
   201  C          0.53113000       0.67678300       0.16703000
   202  C          0.46887000       0.32321700       0.66703000
   203  C          0.03113000       0.82321700       0.16703000
   204  C          0.96887000       0.17678300       0.66703000
   205  H          0.50391900       0.60155900       0.14339600
   206  H          0.49608100       0.39844100       0.64339600
   207  H          0.00391900       0.89844100       0.14339600
   208  H         -0.00391900       0.10155900       0.64339600
   209  C          0.62833000       0.75218100       0.18603000
   210  C          0.37167000       0.24781900       0.68603000
   211  C          0.12833000       0.74781900       0.18603000
   212  C          0.87167000       0.25218100       0.68603000
   213  H          0.66496500       0.72718900       0.17635300
   214  H          0.33503500       0.27281100       0.67635300
   215  H          0.16496500       0.77281100       0.17635300
   216  H          0.83503500       0.22718900       0.67635300
   217  C          0.58603000       0.64548200       0.15263000
   218  C          0.41397000       0.35451800       0.65263000
   219  C          0.08603000       0.85451800       0.15263000
   220  C          0.91397000       0.14548200       0.65263000
   221  H          0.59462300       0.54921800       0.11931400
   222  H          0.40537700       0.45078200       0.61931400
   223  H          0.09462300       0.95078200       0.11931400
   224  H          0.90537700       0.04921800       0.61931400
