data_MUPWAY14
_symmetry_space_group_name_H-M    'P1'
_symmetry_Int_Tables_number       1
loop_
_symmetry_equiv_pos_site_id
_symmetry_equiv_pos_as_xyz
1 x,y,z
_cell_length_a                   18.4134
_cell_length_b                   3.25314
_cell_length_c                   19.0945
_cell_angle_alpha                90.0
_cell_angle_beta                 113.29113
_cell_angle_gamma                90.0
loop_
_atom_site_label
_atom_site_type_symbol
_atom_site_fract_x
_atom_site_fract_y
_atom_site_fract_z
     1  N          0.77943000       0.44981300       0.63364000
     2  N          0.22057000       0.94981300       0.86636000
     3  N          0.22057000       0.55018700       0.36636000
     4  N          0.77943000       0.05018700       0.13364000
     5  N          0.70473000       0.53951200       0.57895000
     6  N          0.29527000       0.03951200       0.92105000
     7  N          0.29527000       0.46048800       0.42105000
     8  N          0.70473000      -0.03951200       0.07895000
     9  N          0.76573000       0.70861200       0.49134000
    10  N          0.23427000       0.20861200       0.00866000
    11  N          0.23427000       0.29138800       0.50866000
    12  N          0.76573000       0.79138800       0.99134000
    13  N          0.84293000       0.47841400       0.76435000
    14  N          0.15707000      -0.02158600       0.73565000
    15  N          0.15707000       0.52158600       0.23565000
    16  N          0.84293000       0.02158600       0.26435000
    17  C          0.70523000       0.66051600       0.51214000
    18  C          0.29477000       0.16051600       0.98786000
    19  C          0.29477000       0.33948400       0.48786000
    20  C          0.70523000       0.83948400       0.01214000
    21  C          0.83894000       0.60731500       0.54595000
    22  C          0.16106000       0.10731500       0.95405000
    23  C          0.16106000       0.39268500       0.45405000
    24  C          0.83894000       0.89268500       0.04595000
    25  C          0.84743000       0.46301400       0.61785000
    26  C          0.15257000      -0.03698600       0.88215000
    27  C          0.15257000       0.53698600       0.38215000
    28  C          0.84743000       0.03698600       0.11785000
    29  C          0.92223000       0.33381400       0.67015000
    30  C          0.07777000       0.83381400       0.82985000
    31  C          0.07777000       0.66618600       0.32985000
    32  C          0.92223000       0.16618600       0.17015000
    33  H          0.92874100       0.22559000       0.71733400
    34  H          0.07125900       0.72559000       0.78266600
    35  H          0.07125900       0.77441000       0.28266600
    36  H          0.92874100       0.27441000       0.21733400
    37  C          0.98513000       0.37281500       0.64925000
    38  C          0.01487000       0.87281500       0.85075000
    39  C          0.01487000       0.62718500       0.35075000
    40  C          0.98513000       0.12718500       0.14925000
    41  H          0.03488500       0.29260000       0.68356500
    42  H          0.96511500       0.79260000       0.81643500
    43  H          0.96511500       0.70740000       0.31643500
    44  H          0.03488500       0.20740000       0.18356500
    45  C          0.97753000       0.52681300       0.57885000
    46  C          0.02247000       0.02681300       0.92115000
    47  C          0.02247000       0.47318700       0.42115000
    48  C          0.97753000      -0.02681300       0.07885000
    49  H          0.02175800       0.55573500       0.56722900
    50  H          0.97824200       0.05573500       0.93277100
    51  H          0.97824200       0.44426500       0.43277100
    52  H          0.02175800       0.94426500       0.06722900
    53  C          0.90403000       0.63631400       0.52645000
    54  C          0.09597000       0.13631400       0.97355000
    55  C          0.09597000       0.36368600       0.47355000
    56  C          0.90403000       0.86368600       0.02645000
    57  H          0.89775400       0.72901900       0.47830500
    58  H          0.10224600       0.22901900       0.02169500
    59  H          0.10224600       0.27098100       0.52169500
    60  H          0.89775400       0.77098100       0.97830500
    61  C          0.62693000       0.77771400       0.45304000
    62  C          0.37307000       0.27771400       0.04696000
    63  C          0.37307000       0.22228600       0.54696000
    64  C          0.62693000       0.72228600       0.95304000
    65  C          0.62443000       0.93441300       0.38485000
    66  C          0.37557000       0.43441300       0.11515000
    67  C          0.37557000       0.06558700       0.61515000
    68  C          0.62443000       0.56558700       0.88485000
    69  H          0.67083700       0.95229800       0.37650000
    70  H          0.32916300       0.45229800       0.12350000
    71  H          0.32916300       0.04770200       0.62350000
    72  H          0.67083700       0.54770200       0.87650000
    73  C          0.55443000       0.06401300       0.32915000
    74  C          0.44557000       0.56401300       0.17085000
    75  C          0.44557000       0.93598700       0.67085000
    76  C          0.55443000       0.43598700       0.82915000
    77  H          0.55321400       0.16651300       0.28319600
    78  H          0.44678600       0.66651300       0.21680400
    79  H          0.44678600       0.83348700       0.71680400
    80  H          0.55321400       0.33348700       0.78319600
    81  C          0.48643000       0.04061500       0.34195000
    82  C          0.51357000       0.54061500       0.15805000
    83  C          0.51357000      -0.04061500       0.65805000
    84  C          0.48643000       0.45938500       0.84195000
    85  H          0.43945400       0.14129000       0.30536300
    86  H          0.56054600       0.64129000       0.19463700
    87  H          0.56054600       0.85871000       0.69463700
    88  H          0.43945400       0.35871000       0.80536300
    89  C          0.48653000       0.87121400       0.40775000
    90  C          0.51347000       0.37121400       0.09225000
    91  C          0.51347000       0.12878600       0.59225000
    92  C          0.48653000       0.62878600       0.90775000
    93  H          0.43946900       0.84268500       0.41459300
    94  H          0.56053100       0.34268500       0.08540700
    95  H          0.56053100       0.15731500       0.58540700
    96  H          0.43946900       0.65731500       0.91459300
    97  C          0.55803000       0.74211300       0.46424000
    98  C          0.44197000       0.24211300       0.03576000
    99  C          0.44197000       0.25788700       0.53576000
   100  C          0.55803000       0.75788700       0.96424000
   101  H          0.55887300       0.63192100       0.50949200
   102  H          0.44112700       0.13192100       0.99050800
   103  H          0.44112700       0.36807900       0.49050800
   104  H          0.55887300       0.86807900       0.00949200
   105  C          0.77793000       0.36911800       0.70565000
   106  C          0.22207000       0.86911800       0.79435000
   107  C          0.22207000       0.63088200       0.29435000
   108  C          0.77793000       0.13088200       0.20565000
   109  C          0.71243000       0.19241600       0.71085000
   110  C          0.28757000       0.69241600       0.78915000
   111  C          0.28757000       0.80758400       0.28915000
   112  C          0.71243000       0.30758400       0.21085000
   113  H          0.66899000       0.11558600       0.66734700
   114  H          0.33101000       0.61558600       0.83265300
   115  H          0.33101000       0.88441400       0.33265300
   116  H          0.66899000       0.38441400       0.16734700
   117  C          0.71344000       0.13341600       0.78245000
   118  C          0.28656000       0.63341600       0.71755000
   119  C          0.28656000       0.86658400       0.21755000
   120  C          0.71344000       0.36658400       0.28245000
   121  H          0.66964500       0.02147600       0.78831000
   122  H          0.33035500       0.52147600       0.71169000
   123  H          0.33035500      -0.02147600       0.21169000
   124  H          0.66964500       0.47852400       0.28831000
   125  C          0.78013000       0.24201200       0.84605000
   126  C          0.21987000       0.74201200       0.65395000
   127  C          0.21987000       0.75798800       0.15395000
   128  C          0.78013000       0.25798800       0.34605000
   129  H          0.78311800       0.19873600       0.89518500
   130  H          0.21688200       0.69873600       0.60481500
   131  H          0.21688200       0.80126400       0.10481500
   132  H          0.78311800       0.30126400       0.39518500
   133  C          0.84154000       0.41591800       0.83295000
   134  C          0.15846000       0.91591800       0.66705000
   135  C          0.15846000       0.58408200       0.16705000
   136  C          0.84154000       0.08408200       0.33295000
   137  H          0.88574300       0.49670300       0.87523800
   138  H          0.11425700      -0.00329700       0.62476200
   139  H          0.11425700       0.50329700       0.12476200
   140  H          0.88574300       0.00329700       0.37523800
