data_MUPWAY01
_symmetry_space_group_name_H-M    'P1'
_symmetry_Int_Tables_number       1
loop_
_symmetry_equiv_pos_site_id
_symmetry_equiv_pos_as_xyz
1 x,y,z
_cell_length_a                   19.78939
_cell_length_b                   3.768201
_cell_length_c                   19.73228
_cell_angle_alpha                90.0
_cell_angle_beta                 114.5945
_cell_angle_gamma                90.0
loop_
_atom_site_label
_atom_site_type_symbol
_atom_site_fract_x
_atom_site_fract_y
_atom_site_fract_z
     1  N          0.21479600       0.42153000       0.36744500
     2  N          0.78520400       0.92153000       0.13255500
     3  N          0.78520400       0.57847000       0.63255500
     4  N          0.21479600       0.07847000       0.86744500
     5  N          0.28229600       0.52393000       0.42100600
     6  N          0.71770400       0.02393000       0.07899400
     7  N          0.71770400       0.47607000       0.57899400
     8  N          0.28229600      -0.02393000       0.92100600
     9  N          0.22456600       0.67113000       0.50256600
    10  N          0.77543400       0.17113000      -0.00256600
    11  N          0.77543400       0.32887000       0.49743400
    12  N          0.22456600       0.82887000       0.00256600
    13  N          0.15935600       0.41613000       0.23703600
    14  N          0.84064400       0.91613000       0.26296400
    15  N          0.84064400       0.58387000       0.76296400
    16  N          0.15935600       0.08387000       0.73703600
    17  C          0.28260700       0.64223000       0.48498600
    18  C          0.71739300       0.14223000       0.01501400
    19  C          0.71739300       0.35777000       0.51501400
    20  C          0.28260700       0.85777000       0.98498600
    21  C          0.15838700       0.54743000       0.45031700
    22  C          0.84161300       0.04743000       0.04968300
    23  C          0.84161300       0.45257000       0.54968300
    24  C          0.15838700       0.95257000       0.95031700
    25  C          0.15071700       0.41053000       0.38050700
    26  C          0.84928300       0.91053000       0.11949300
    27  C          0.84928300       0.58947000       0.61949300
    28  C          0.15071700       0.08947000       0.88050700
    29  C          0.08300700       0.26544000       0.33094700
    30  C          0.91699300       0.76544000       0.16905300
    31  C          0.91699300       0.73456000       0.66905300
    32  C          0.08300700       0.23456000       0.83094700
    33  H          0.07870000       0.16580000       0.28620000
    34  H          0.92130000       0.66580000       0.21380000
    35  H          0.92130000       0.83420000       0.71380000
    36  H          0.07870000       0.33420000       0.78620000
    37  C          0.02243800       0.27144000       0.34906700
    38  C          0.97756200       0.77144000       0.15093300
    39  C          0.97756200       0.72856000       0.65093300
    40  C          0.02243800       0.22856000       0.84906700
    41  H          0.97720000       0.17740000       0.31610000
    42  H          0.02280000       0.67740000       0.18390000
    43  H          0.02280000       0.82260000       0.68390000
    44  H          0.97720000       0.32260000       0.81610000
    45  C          0.02884800       0.41824000       0.41680700
    46  C          0.97115200       0.91824000       0.08319300
    47  C          0.97115200       0.58176000       0.58319300
    48  C          0.02884800       0.08176000       0.91680700
    49  H          0.98760000       0.42570000       0.42800000
    50  H          0.01240000       0.92570000       0.07200000
    51  H          0.01240000       0.57430000       0.57200000
    52  H          0.98760000       0.07430000       0.92800000
    53  C          0.09556800       0.55064000       0.46658700
    54  C          0.90443200       0.05064000       0.03341300
    55  C          0.90443200       0.44936000       0.53341300
    56  C          0.09556800       0.94936000       0.96658700
    57  H          0.09940000       0.64370000       0.51170000
    58  H          0.90060000       0.14370000       0.98830000
    59  H          0.90060000       0.35630000       0.48830000
    60  H          0.09940000       0.85630000       0.01170000
    61  C          0.35620700       0.75923000       0.54135600
    62  C          0.64379300       0.25923000       0.95864400
    63  C          0.64379300       0.24077000       0.45864400
    64  C          0.35620700       0.74077000       0.04135600
    65  C          0.36181800       0.89773000       0.60936700
    66  C          0.63818200       0.39773000       0.89063300
    67  C          0.63818200       0.10227000       0.39063300
    68  C          0.36181800       0.60227000       0.10936700
    69  H          0.31970000       0.91440000       0.61880000
    70  H          0.68030000       0.41440000       0.88120000
    71  H          0.68030000       0.08560000       0.38120000
    72  H          0.31970000       0.58560000       0.11880000
    73  C          0.42989800       0.00984000       0.66253700
    74  C          0.57010200       0.50984000       0.83746300
    75  C          0.57010200      -0.00984000       0.33746300
    76  C          0.42989800       0.49016000       0.16253700
    77  H          0.43320000       0.10090000       0.70760000
    78  H          0.56680000       0.60090000       0.79240000
    79  H          0.56680000       0.89910000       0.29240000
    80  H          0.43320000       0.39910000       0.20760000
    81  C          0.49305800      -0.01296000       0.64898700
    82  C          0.50694200       0.48704000       0.85101300
    83  C          0.50694200       0.01296000       0.35101300
    84  C          0.49305800       0.51296000       0.14898700
    85  H          0.53860000       0.06380000       0.68470000
    86  H          0.46140000       0.56380000       0.81530000
    87  H          0.46140000       0.93620000       0.31530000
    88  H          0.53860000       0.43620000       0.18470000
    89  C          0.48795800       0.84874000       0.58167800
    90  C          0.51204200       0.34874000       0.91832200
    91  C          0.51204200       0.15126000       0.41832200
    92  C          0.48795800       0.65126000       0.08167800
    93  H          0.53030000       0.83190000       0.57250000
    94  H          0.46970000       0.33190000       0.92750000
    95  H          0.46970000       0.16810000       0.42750000
    96  H          0.53030000       0.66810000       0.07250000
    97  C          0.41989800       0.73564000       0.52817700
    98  C          0.58010200       0.23564000       0.97182300
    99  C          0.58010200       0.26436000       0.47182300
   100  C          0.41989800       0.76436000       0.02817700
   101  H          0.41680000       0.64360000       0.48330000
   102  H          0.58320000       0.14360000       0.01670000
   103  H          0.58320000       0.35640000       0.51670000
   104  H          0.41680000       0.85640000       0.98330000
   105  C          0.21798700       0.32923000       0.29872600
   106  C          0.78201300       0.82923000       0.20127400
   107  C          0.78201300       0.67077000       0.70127400
   108  C          0.21798700       0.17077000       0.79872600
   109  C          0.28177700       0.16604000       0.30028700
   110  C          0.71822300       0.66604000       0.19971300
   111  C          0.71822300       0.83396000       0.69971300
   112  C          0.28177700       0.33396000       0.80028700
   113  H          0.32150000       0.10950000       0.34500000
   114  H          0.67850000       0.60950000       0.15500000
   115  H          0.67850000       0.89050000       0.65500000
   116  H          0.32150000       0.39050000       0.84500000
   117  C          0.28361800       0.09124000       0.23223700
   118  C          0.71638200       0.59124000       0.26776300
   119  C          0.71638200       0.90876000       0.76776300
   120  C          0.28361800       0.40876000       0.73223700
   121  H          0.32520000      -0.01670000       0.23060000
   122  H          0.67480000       0.48330000       0.26940000
   123  H          0.67480000       0.01670000       0.76940000
   124  H          0.32520000       0.51670000       0.73060000
   125  C          0.22324800       0.17814000       0.16677700
   126  C          0.77675200       0.67814000       0.33322300
   127  C          0.77675200       0.82186000       0.83322300
   128  C          0.22324800       0.32186000       0.66677700
   129  H          0.22340000       0.13010000       0.12060000
   130  H          0.77660000       0.63010000       0.37940000
   131  H          0.77660000       0.86990000       0.87940000
   132  H          0.22340000       0.36990000       0.62060000
   133  C          0.16288800       0.33804000       0.17207700
   134  C          0.83711200       0.83804000       0.32792300
   135  C          0.83711200       0.66196000       0.82792300
   136  C          0.16288800       0.16196000       0.67207700
   137  H          0.12220000       0.39520000       0.12810000
   138  H          0.87780000       0.89520000       0.37190000
   139  H          0.87780000       0.60480000       0.87190000
   140  H          0.12220000       0.10480000       0.62810000
