data_MUPWAY
_symmetry_space_group_name_H-M    'P1'
_symmetry_Int_Tables_number       1
loop_
_symmetry_equiv_pos_site_id
_symmetry_equiv_pos_as_xyz
1 x,y,z
_cell_length_a                   7.16563
_cell_length_b                   10.97054
_cell_length_c                   17.58436
_cell_angle_alpha                90.0
_cell_angle_beta                 90.0
_cell_angle_gamma                90.0
loop_
_atom_site_label
_atom_site_type_symbol
_atom_site_fract_x
_atom_site_fract_y
_atom_site_fract_z
     1  N          0.47093000       0.66496160       0.50105100
     2  N          0.02907000       0.33503840       0.00105100
     3  N          0.52907000       0.16496160      -0.00105100
     4  N          0.97093000       0.83503840       0.49894900
     5  N          0.52092000       0.67470170       0.42634100
     6  N          0.97908000       0.32529830       0.92634100
     7  N          0.47908000       0.17470170       0.07365900
     8  N          0.02092000       0.82529830       0.57365900
     9  N          0.49663000       0.45739170       0.41288100
    10  N          0.00337000       0.54260830       0.91288100
    11  N          0.50337000       0.95739170       0.08711900
    12  N         -0.00337000       0.04260830       0.58711900
    13  N          0.54783000       0.76790190       0.61301110
    14  N          0.95217000       0.23209810       0.11301110
    15  N          0.45217000       0.26790190       0.88698890
    16  N          0.04783000       0.73209810       0.38698890
    17  C          0.53093000       0.57042000       0.38740120
    18  C          0.96907000       0.42958000       0.88740120
    19  C          0.46907000       0.07042000       0.11259880
    20  C          0.03093000       0.92958000       0.61259880
    21  C          0.42663000       0.45132000       0.48556120
    22  C          0.07337000       0.54868000       0.98556120
    23  C          0.57337000       0.95132000       0.01443880
    24  C          0.92663000       0.04868000       0.51443880
    25  C          0.40863000       0.55512000       0.53228120
    26  C          0.09137000       0.44488000       0.03228120
    27  C          0.59137000       0.05512000       0.96771880
    28  C          0.90863000       0.94488000       0.46771880
    29  C          0.32163000       0.54672000       0.60363120
    30  C          0.17837000       0.45328000       0.10363120
    31  C          0.67837000       0.04672000       0.89636880
    32  C          0.82163000       0.95328000       0.39636880
    33  H          0.30820000       0.61550000       0.63400000
    34  H          0.19180000       0.38450000       0.13400000
    35  H          0.69180000       0.11550000       0.86600000
    36  H          0.80820000       0.88450000       0.36600000
    37  C          0.25603000       0.43482000       0.62828120
    38  C          0.24397000       0.56518000       0.12828120
    39  C          0.74397000       0.93482000       0.87171880
    40  C          0.75603000       0.06518000       0.37171880
    41  H          0.19710000       0.42910000       0.67530000
    42  H          0.30290000       0.57090000       0.17530000
    43  H          0.80290000       0.92910000       0.82470000
    44  H          0.69710000       0.07090000       0.32470000
    45  C          0.27693000       0.33032000       0.58353140
    46  C          0.22307000       0.66968000       0.08353140
    47  C          0.72307000       0.83032000       0.91646860
    48  C          0.77693000       0.16968000       0.41646860
    49  H          0.23400000       0.25550000       0.60120000
    50  H          0.26600000       0.74450000       0.10120000
    51  H          0.76600000       0.75550000       0.89880000
    52  H          0.73400000       0.24450000       0.39880000
    53  C          0.36173000       0.33842000       0.51287130
    54  C          0.13827000       0.66158000       0.01287130
    55  C          0.63827000       0.83842000       0.98712870
    56  C          0.86173000       0.16158000       0.48712870
    57  H          0.37570000       0.26870000       0.48330000
    58  H          0.12430000       0.73130000       0.98330000
    59  H          0.62430000       0.76870000       0.01670000
    60  H          0.87570000       0.23130000       0.51670000
    61  C          0.59493000       0.58332000       0.30744120
    62  C          0.90507000       0.41668000       0.80744120
    63  C          0.40507000       0.08332000       0.19255880
    64  C          0.09493000       0.91668000       0.69255880
    65  C          0.65993000       0.48162000       0.26768130
    66  C          0.84007000       0.51838000       0.76768130
    67  C          0.34007000       0.98162000       0.23231870
    68  C          0.15993000       0.01838000       0.73231870
    69  H          0.65380000       0.40500000       0.29020000
    70  H          0.84620000       0.59500000       0.79020000
    71  H          0.34620000       0.90500000       0.20980000
    72  H          0.15380000       0.09500000       0.70980000
    73  C          0.73343000       0.49332000       0.19509130
    74  C          0.76657000       0.50668000       0.69509130
    75  C          0.26657000      -0.00668000       0.30490870
    76  C          0.23343000       0.00668000       0.80490870
    77  H          0.77910000       0.42530000       0.16960000
    78  H          0.72090000       0.57470000       0.66960000
    79  H          0.22090000       0.92530000       0.33040000
    80  H          0.27910000       0.07470000       0.83040000
    81  C          0.73843000       0.60752000       0.16053120
    82  C          0.76157000       0.39248000       0.66053120
    83  C          0.26157000       0.10752000       0.33946880
    84  C          0.23843000       0.89248000       0.83946880
    85  H          0.78860000       0.61580000       0.11200000
    86  H          0.71140000       0.38420000       0.61200000
    87  H          0.21140000       0.11580000       0.38800000
    88  H          0.28860000       0.88420000       0.88800000
    89  C          0.66853000       0.70922000       0.19843130
    90  C          0.83147000       0.29078000       0.69843130
    91  C          0.33147000       0.20922000       0.30156870
    92  C          0.16853000       0.79078000       0.80156870
    93  H          0.66950000       0.78500000       0.17470000
    94  H          0.83050000       0.21500000       0.67470000
    95  H          0.33050000       0.28500000       0.32530000
    96  H          0.16950000       0.71500000       0.82530000
    97  C          0.59713000       0.69792000       0.27174130
    98  C          0.90287000       0.30208000       0.77174130
    99  C          0.40287000       0.19792000       0.22825870
   100  C          0.09713000       0.80208000       0.72825870
   101  H          0.55090000       0.76600000       0.29700000
   102  H          0.94910000       0.23400000       0.79700000
   103  H          0.44910000       0.26600000       0.20300000
   104  H          0.05090000       0.73400000       0.70300000
   105  C          0.48653000       0.77690190       0.54185120
   106  C          0.01347000       0.22309810       0.04185120
   107  C          0.51347000       0.27690190       0.95814880
   108  C         -0.01347000       0.72309810       0.45814880
   109  C          0.44503000       0.88602000       0.50525140
   110  C          0.05497000       0.11398000       0.00525140
   111  C          0.55497000       0.38602000      -0.00525140
   112  C          0.94503000       0.61398000       0.49474860
   113  H          0.40340000       0.88730000       0.45520000
   114  H          0.09660000       0.11270000       0.95520000
   115  H          0.59660000       0.38730000       0.04480000
   116  H          0.90340000       0.61270000       0.54480000
   117  C          0.46833000      -0.00728000       0.54654160
   118  C          0.03167000       0.00728000       0.04654160
   119  C          0.53167000       0.49272000       0.95345840
   120  C          0.96833000       0.50728000       0.45345840
   121  H          0.44200000       0.06790000       0.52450000
   122  H          0.05800000       0.93210000       0.02450000
   123  H          0.55800000       0.56790000       0.97550000
   124  H          0.94200000       0.43210000       0.47550000
   125  C          0.53114000       0.98612000       0.62084160
   126  C          0.96886000       0.01388000       0.12084160
   127  C          0.46886000       0.48612000       0.87915840
   128  C          0.03114000       0.51388000       0.37915840
   129  H          0.54870000       0.05660000       0.64930000
   130  H          0.95130000       0.94340000       0.14930000
   131  H          0.45130000       0.55660000       0.85070000
   132  H          0.04870000       0.44340000       0.35070000
   133  C          0.56744000       0.87243000       0.65202140
   134  C          0.93256000       0.12757000       0.15202140
   135  C          0.43256000       0.37243000       0.84797860
   136  C          0.06744000       0.62757000       0.34797860
   137  H          0.60720000       0.86830000       0.70230000
   138  H          0.89280000       0.13170000       0.20230000
   139  H          0.39280000       0.36830000       0.79770000
   140  H          0.10720000       0.63170000       0.29770000
