data_MUPWAY34
_symmetry_space_group_name_H-M    'P1'
_symmetry_Int_Tables_number       1
loop_
_symmetry_equiv_pos_site_id
_symmetry_equiv_pos_as_xyz
1 x,y,z
_cell_length_a                   6.3952
_cell_length_b                   10.3184
_cell_length_c                   16.7481
_cell_angle_alpha                90.0
_cell_angle_beta                 90.0
_cell_angle_gamma                90.0
loop_
_atom_site_label
_atom_site_type_symbol
_atom_site_fract_x
_atom_site_fract_y
_atom_site_fract_z
     1  N          0.48931700       0.32178000       0.49031000
     2  N          0.01068300       0.67822000       0.99031000
     3  N          0.51068300       0.82178000       0.00969000
     4  N         -0.01068300       0.17822000       0.50969000
     5  N          0.52821600       0.30689000       0.57001000
     6  N          0.97178400       0.69311000       0.07001000
     7  N          0.47178400       0.80689000       0.92999000
     8  N          0.02821600       0.19311000       0.42999000
     9  N          0.51731800       0.53759000       0.58591100
    10  N         -0.01731800       0.46241000       0.08591100
    11  N          0.48268200       0.03759000       0.91408900
    12  N          0.01731800       0.96241000       0.41408900
    13  N          0.56001900       0.22821100       0.36811200
    14  N          0.93998100       0.77178900       0.86811200
    15  N          0.43998100       0.72821100       0.13188800
    16  N          0.06001900       0.27178900       0.63188800
    17  C          0.54231800       0.41589000       0.61131000
    18  C          0.95768200       0.58411000       0.11131000
    19  C          0.45768200       0.91589000       0.88869000
    20  C          0.04231800       0.08411000       0.38869000
    21  C          0.43920000       0.54749000       0.51031100
    22  C          0.06080000       0.45251000       0.01031100
    23  C          0.56080000       0.04749000       0.98968900
    24  C          0.93920000       0.95251000       0.48968900
    25  C          0.41820000       0.43959000       0.46011100
    26  C          0.08180000       0.56041000       0.96011100
    27  C          0.58180000       0.93959000       0.03988900
    28  C          0.91820000       0.06041000       0.53988900
    29  C          0.32620000       0.45221100       0.38511200
    30  C          0.17380000       0.54778900       0.88511200
    31  C          0.67380000       0.95221100       0.11488800
    32  C          0.82620000       0.04778900       0.61488800
    33  H          0.31435100       0.38166900       0.35075500
    34  H          0.18564900       0.61833100       0.85075500
    35  H          0.68564900       0.88166900       0.14924500
    36  H          0.81435100       0.11833100       0.64924500
    37  C          0.25220000       0.57171100       0.36361400
    38  C          0.24780000       0.42828900       0.86361400
    39  C          0.74780000       0.07171100       0.13638600
    40  C          0.75220000       0.92828900       0.63638600
    41  H          0.18156600       0.58041000       0.31534400
    42  H          0.31843400       0.41959000       0.81534400
    43  H          0.81843400       0.08041000       0.18465600
    44  H          0.68156600       0.91959000       0.68465600
    45  C          0.27820000       0.67981200       0.41121300
    46  C          0.22180000       0.32018800       0.91121300
    47  C          0.72180000       0.17981200       0.08878700
    48  C          0.77820000       0.82018800       0.58878700
    49  H          0.22956200       0.76002400       0.39403200
    50  H          0.27043800       0.23997600       0.89403200
    51  H          0.77043800       0.26002400       0.10596800
    52  H          0.72956200       0.73997600       0.60596800
    53  C          0.37520000       0.66911100       0.48301300
    54  C          0.12480000       0.33088900       0.98301300
    55  C          0.62480000       0.16911100       0.01698700
    56  C          0.87520000       0.83088900       0.51698700
    57  H          0.39861400       0.74243700       0.51398600
    58  H          0.10138600       0.25756300       0.01398600
    59  H          0.60138600       0.24243700       0.98601400
    60  H          0.89861400       0.75756300       0.48601400
    61  C          0.59820000       0.40331000       0.69641000
    62  C          0.90180000       0.59669000       0.19641000
    63  C          0.40180000       0.90331000       0.80359000
    64  C          0.09820000       0.09669000       0.30359000
    65  C          0.65620000       0.51251200       0.73901300
    66  C          0.84380000       0.48748800       0.23901300
    67  C          0.34380000       0.01251200       0.76098700
    68  C          0.15620000      -0.01251200       0.26098700
    69  H          0.65521300       0.59297500       0.71407500
    70  H          0.84478700       0.40702500       0.21407500
    71  H          0.34478700       0.09297500       0.78592500
    72  H          0.15521300       0.90702500       0.28592500
    73  C          0.71620000       0.50361200       0.81771300
    74  C          0.78380000       0.49638800       0.31771300
    75  C          0.28380000       0.00361200       0.68228700
    76  C          0.21620000      -0.00361200       0.18228700
    77  H          0.75051000       0.57803800       0.84606400
    78  H          0.74949000       0.42196200       0.34606400
    79  H          0.24949000       0.07803800       0.65393600
    80  H          0.25051000       0.92196200       0.15393600
    81  C          0.72520000       0.38511000       0.85411300
    82  C          0.77480000       0.61489000       0.35411300
    83  C          0.27480000       0.88511000       0.64588700
    84  C          0.22520000       0.11489000       0.14588700
    85  H          0.76846500       0.37915000       0.90700600
    86  H          0.73153500       0.62085000       0.40700600
    87  H          0.23153500       0.87915000       0.59299400
    88  H          0.26846500       0.12085000       0.09299400
    89  C          0.67020000       0.27471200       0.81321300
    90  C          0.82980000       0.72528800       0.31321300
    91  C          0.32980000       0.77471200       0.68678700
    92  C          0.17020000       0.22528800       0.18678700
    93  H          0.67750900       0.19422300       0.83800100
    94  H          0.82249100       0.80577700       0.33800100
    95  H          0.32249100       0.69422300       0.66199900
    96  H          0.17750900       0.30577700       0.16199900
    97  C          0.60420000       0.28451000       0.73471200
    98  C          0.89580000       0.71549000       0.23471200
    99  C          0.39580000       0.78451000       0.76528800
   100  C          0.10420000       0.21549000       0.26528800
   101  H          0.56265000       0.21028500       0.70737600
   102  H          0.93735000       0.78971500       0.20737600
   103  H          0.43735000       0.71028500       0.79262400
   104  H          0.06265000       0.28971500       0.29262400
   105  C          0.50961900       0.20629000       0.44341100
   106  C         -0.00961900       0.79371000       0.94341100
   107  C          0.49038100       0.70629000       0.05658900
   108  C          0.00961900       0.29371000       0.55658900
   109  C          0.47520000       0.08871000       0.47771300
   110  C          0.02480000       0.91129000       0.97771300
   111  C          0.52480000       0.58871000       0.02228700
   112  C          0.97520000       0.41129000       0.52228700
   113  H          0.44041100       0.08076800       0.53135700
   114  H          0.05958900       0.91923200       0.03135700
   115  H          0.55958900       0.58076800       0.96864300
   116  H          0.94041100       0.41923200       0.46864300
   117  C          0.49520000       0.98028800       0.42811400
   118  C          0.00480000       0.01971200       0.92811400
   119  C          0.50480000       0.48028800       0.07188600
   120  C         -0.00480000       0.51971200       0.57188600
   121  H          0.46631500       0.89649100       0.44520300
   122  H          0.03368500       0.10350900       0.94520300
   123  H          0.53368500       0.39649100       0.05479700
   124  H          0.96631500       0.60350900       0.55479700
   125  C          0.56130000       0.00791400       0.35261400
   126  C          0.93870000      -0.00791400       0.85261400
   127  C          0.43870000       0.50791400       0.14738600
   128  C          0.06130000       0.49208600       0.64738600
   129  H          0.59430200       0.93745600       0.32036300
   130  H          0.90569800       0.06254400       0.82036300
   131  H          0.40569800       0.43745600       0.17963700
   132  H          0.09430200       0.56254400       0.67963700
   133  C          0.58320000       0.12651300       0.31961400
   134  C          0.91680000       0.87348700       0.81961400
   135  C          0.41680000       0.62651300       0.18038600
   136  C          0.08320000       0.37348700       0.68038600
   137  H          0.61272800       0.13693500       0.26564800
   138  H          0.88727200       0.86306500       0.76564800
   139  H          0.38727200       0.63693500       0.23435200
   140  H          0.11272800       0.36306500       0.73435200
