data_MUYROO
_symmetry_space_group_name_H-M    'P1'
_symmetry_Int_Tables_number       1
loop_
_symmetry_equiv_pos_site_id
_symmetry_equiv_pos_as_xyz
1 x,y,z
_cell_length_a                   3.68881
_cell_length_b                   21.32648
_cell_length_c                   13.70546
_cell_angle_alpha                90.0
_cell_angle_beta                 95.003415
_cell_angle_gamma                90.0
loop_
_atom_site_label
_atom_site_type_symbol
_atom_site_fract_x
_atom_site_fract_y
_atom_site_fract_z
     1  F          0.31026000       0.17415800       0.62994130
     2  F          0.68974000       0.67415800       0.87005870
     3  F          0.68974000       0.82584200       0.37005870
     4  F          0.31026000       0.32584200       0.12994130
     5  O          0.57904000       0.93517100       0.58719140
     6  O          0.42096000       0.43517100       0.91280860
     7  O          0.42096000       0.06482900       0.41280860
     8  O          0.57904000       0.56482900       0.08719140
     9  H          0.48430000       0.94480000       0.53120000
    10  H          0.51570000       0.44480000       0.96880000
    11  H          0.51570000       0.05520000       0.46880000
    12  H          0.48430000       0.55520000       0.03120000
    13  F          0.57536000       0.28449800       0.69547150
    14  F          0.42464000       0.78449800       0.80452850
    15  F          0.42464000       0.71550200       0.30452850
    16  F          0.57536000       0.21550200       0.19547150
    17  O          0.75804000       0.03579900       0.58459140
    18  O          0.24196000       0.53579900       0.91540860
    19  O          0.24196000       0.96420100       0.41540860
    20  O          0.75804000       0.46420100       0.08459140
    21  N          0.22276000       0.01463110       0.87838160
    22  N          0.77724000       0.51463110       0.62161840
    23  N          0.77724000       0.98536890       0.12161840
    24  N          0.22276000       0.48536890       0.37838160
    25  N          0.10866000       0.08286110       0.74731160
    26  N          0.89134000       0.58286110       0.75268840
    27  N          0.89134000       0.91713890       0.25268840
    28  N          0.10866000       0.41713890       0.24731160
    29  H          0.02360000       0.08670000       0.68560000
    30  H         -0.02360000       0.58670000       0.81440000
    31  H         -0.02360000       0.91330000       0.31440000
    32  H          0.02360000       0.41330000       0.18560000
    33  C          0.25377000       0.13767130       0.79142000
    34  C          0.74623000       0.63767130       0.70858000
    35  C          0.74623000       0.86232870       0.20858000
    36  C          0.25377000       0.36232870       0.29142000
    37  C          0.74463000       0.98488870       0.62831190
    38  C          0.25537000       0.48488870       0.87168810
    39  C          0.25537000       0.01511130       0.37168810
    40  C          0.74463000       0.51511130       0.12831190
    41  C          0.90663000       0.97495870       0.72897190
    42  C          0.09337000       0.47495870       0.77102810
    43  C          0.09337000       0.02504130       0.27102810
    44  C          0.90663000       0.52504130       0.22897190
    45  C          0.19728000       0.95652870       0.91592000
    46  C          0.80272000       0.45652870       0.58408000
    47  C          0.80272000       0.04347130       0.08408000
    48  C          0.19728000       0.54347130       0.41592000
    49  H          0.29640000       0.94990000       0.98140000
    50  H          0.70360000       0.44990000       0.51860000
    51  H          0.70360000       0.05010000       0.01860000
    52  H          0.29640000       0.55010000       0.48140000
    53  C          0.89373000       0.91578870       0.77132000
    54  C          0.10627000       0.41578870       0.72868000
    55  C          0.10627000       0.08421130       0.22868000
    56  C          0.89373000       0.58421130       0.27132000
    57  H          0.78520000       0.88190000       0.73430000
    58  H          0.21480000       0.38190000       0.76570000
    59  H          0.21480000       0.11810000       0.26570000
    60  H          0.78520000       0.61810000       0.23430000
    61  C          0.29898000       0.15095140       0.89172000
    62  C          0.70102000       0.65095140       0.60828000
    63  C          0.70102000       0.84904860       0.10828000
    64  C          0.29898000       0.34904860       0.39172000
    65  H          0.23720000       0.12020000       0.93770000
    66  H          0.76280000       0.62020000       0.56230000
    67  H          0.76280000       0.87980000       0.06230000
    68  H          0.23720000       0.37980000       0.43770000
    69  C          0.35128000       0.18474140       0.72842000
    70  C          0.64872000       0.68474140       0.77158000
    71  C          0.64872000       0.81525860       0.27158000
    72  C          0.35128000       0.31525860       0.22842000
    73  C          0.03708000       0.90586870       0.86612000
    74  C         -0.03708000       0.40586870       0.63388000
    75  C         -0.03708000       0.09413130       0.13388000
    76  C          0.03708000       0.59413130       0.36612000
    77  H          0.02630000       0.86580000       0.89610000
    78  H         -0.02630000       0.36580000       0.60390000
    79  H         -0.02630000       0.13420000       0.10390000
    80  H          0.02630000       0.63420000       0.39610000
    81  C          0.43288000       0.20866140       0.92462000
    82  C          0.56712000       0.70866140       0.57538000
    83  C          0.56712000       0.79133860       0.07538000
    84  C          0.43288000       0.29133860       0.42462000
    85  H          0.46040000       0.21670000      -0.00700000
    86  H          0.53960000       0.71670000       0.50700000
    87  H          0.53960000       0.78330000       0.00700000
    88  H          0.46040000       0.28330000       0.49300000
    89  C          0.07977000       0.02415120       0.78628190
    90  C          0.92023000       0.52415120       0.71371810
    91  C          0.92023000       0.97584880       0.21371810
    92  C          0.07977000       0.47584880       0.28628190
    93  C          0.52739000       0.25473150       0.86092000
    94  C          0.47261000       0.75473150       0.63908000
    95  C          0.47261000       0.74526850       0.13908000
    96  C          0.52739000       0.24526850       0.36092000
    97  H          0.61890000       0.29410000       0.88420000
    98  H          0.38110000       0.79410000       0.61580000
    99  H          0.38110000       0.70590000       0.11580000
   100  H          0.61890000       0.20590000       0.38420000
   101  C          0.48399000       0.24164140       0.76222000
   102  C          0.51601000       0.74164140       0.73778000
   103  C          0.51601000       0.75835860       0.23778000
   104  C          0.48399000       0.25835860       0.26222000
