data_MUYROO01
_symmetry_space_group_name_H-M    'P1'
_symmetry_Int_Tables_number       1
loop_
_symmetry_equiv_pos_site_id
_symmetry_equiv_pos_as_xyz
1 x,y,z
_cell_length_a                   4.25212
_cell_length_b                   9.44075
_cell_length_c                   13.69698
_cell_angle_alpha                106.367023
_cell_angle_beta                 90.331023
_cell_angle_gamma                96.516022
loop_
_atom_site_label
_atom_site_type_symbol
_atom_site_fract_x
_atom_site_fract_y
_atom_site_fract_z
     1  F          0.30686000       0.96237000       0.23072190
     2  F          0.69314000       0.03763000       0.76927810
     3  O          0.77683000       0.07383000       0.08722000
     4  O          0.22317000       0.92617000       0.91278000
     5  F          0.69677000       0.90347000       0.36472000
     6  F          0.30323000       0.09653000       0.63528000
     7  O          0.51832000       0.19594000       0.00042000
     8  O          0.48168000       0.80406000      -0.00042000
     9  H          0.43380000       0.10920000       0.97150000
    10  H          0.56620000       0.89080000       0.02850000
    11  N          0.19108000       0.23444000       0.23553000
    12  N          0.80892000       0.76556000       0.76447000
    13  H          0.10580000       0.14920000       0.19420000
    14  H          0.89420000       0.85080000       0.80580000
    15  N          0.22179000       0.49154000       0.27213000
    16  N          0.77821000       0.50846000       0.72787000
    17  C          0.39751000       0.22135000       0.31093000
    18  C          0.60249000       0.77865000       0.68907000
    19  C          0.74601100       0.30455000       0.46223000
    20  C          0.25398900       0.69545000       0.53777000
    21  H          0.84470000       0.38380000       0.51660000
    22  H          0.15530000       0.61620000       0.48340000
    23  C          0.45461000       0.07715000       0.30643000
    24  C          0.54539000       0.92285000       0.69357000
    25  C          0.87929000       0.33925000       0.13163000
    26  C          0.12071000       0.66075000       0.86837000
    27  C          0.79751100       0.15995000       0.45623000
    28  C          0.20248900       0.84005000       0.54377000
    29  H          0.92980000       0.13880000       0.50520000
    30  H          0.07020000       0.86120000       0.49480000
    31  C          0.72489000       0.19245000       0.07223000
    32  C          0.27511000       0.80755000       0.92777000
    33  C          0.55441000       0.33675000       0.39083000
    34  C          0.44559000       0.66325000       0.60917000
    35  H          0.52890000       0.43720000       0.39580000
    36  H          0.47110000       0.56280000       0.60420000
    37  C          0.14001200       0.61075000       0.24804000
    38  C          0.85998800       0.38925000       0.75196000
    39  H          0.22770000       0.70590000       0.28930000
    40  H          0.77230000       0.29410000       0.71070000
    41  C          0.80428800       0.46645000       0.10934000
    42  C          0.19571200       0.53355000       0.89066000
    43  H          0.66090000       0.45780000       0.05400000
    44  H          0.33910000       0.54220000       0.94600000
    45  C          0.93698800       0.60515000       0.16724000
    46  C          0.06301200       0.39485000       0.83276000
    47  H          0.89110000       0.69310000       0.15220000
    48  H          0.10890000       0.30690000       0.84780000
    49  C          0.09841000       0.35695000       0.21483000
    50  C          0.90159000       0.64305000       0.78517000
    51  C          0.64921100       0.04815000       0.37653000
    52  C          0.35078900       0.95185000       0.62347000
