data_MUYROO02
_symmetry_space_group_name_H-M    'P1'
_symmetry_Int_Tables_number       1
loop_
_symmetry_equiv_pos_site_id
_symmetry_equiv_pos_as_xyz
1 x,y,z
_cell_length_a                   6.82332
_cell_length_b                   7.64203
_cell_length_c                   10.93714
_cell_angle_alpha                104.637915
_cell_angle_beta                 105.292415
_cell_angle_gamma                94.591416
loop_
_atom_site_label
_atom_site_type_symbol
_atom_site_fract_x
_atom_site_fract_y
_atom_site_fract_z
     1  F          0.87978000       0.54332000       0.85456140
     2  F          0.12022000       0.45668000       0.14543860
     3  N          0.26023000       0.39113000       0.53601190
     4  N          0.73977000       0.60887000       0.46398810
     5  F          0.07872000       0.80332000       0.07893160
     6  F          0.92128000       0.19668000       0.92106840
     7  C          0.08783000       0.32183000       0.55522000
     8  C          0.91217000       0.67817000       0.44478000
     9  C          0.93657000       0.18603000       0.45272000
    10  C          0.06343000       0.81397000       0.54728000
    11  C         -0.02273000       0.11923000       0.33272000
    12  C          0.02273000       0.88077000       0.66728000
    13  H          0.87990000       0.02690000       0.26340000
    14  H          0.12010000       0.97310000       0.73660000
    15  C          0.15734000       0.18523000       0.31313000
    16  C          0.84266000       0.81477000       0.68687000
    17  H          0.18780000       0.13910000       0.23210000
    18  H          0.81220000       0.86090000       0.76790000
    19  C          0.29154000       0.32233000       0.41722000
    20  C          0.70846000       0.67767000       0.58278000
    21  H          0.41430000       0.37130000       0.40410000
    22  H          0.58570000       0.62870000       0.59590000
    23  N          0.05873000       0.38583000       0.67613190
    24  N          0.94127000       0.61417000       0.32386810
    25  H          0.94360000       0.33600000       0.68410000
    26  H          0.05640000       0.66400000       0.31590000
    27  C          0.18303000       0.51823000       0.78952000
    28  C          0.81697000       0.48177000       0.21048000
    29  C          0.08443000       0.59893000       0.88112000
    30  C          0.91557000       0.40107000       0.11888000
    31  C          0.18754000       0.73064000      -0.00367000
    32  C          0.81246000       0.26936000       0.00367000
    33  C          0.39544000       0.78784000       0.02823000
    34  C          0.60456000       0.21216000       0.97177000
    35  H          0.46720000       0.87870000       0.10840000
    36  H          0.53280000       0.12130000       0.89160000
    37  C          0.49674000       0.70754000       0.93863000
    38  C          0.50326000       0.29246000       0.06137000
    39  H          0.64050000       0.74460000       0.95840000
    40  H          0.35950000       0.25540000       0.04160000
    41  C          0.39424000       0.57564000       0.82162000
    42  C          0.60576000       0.42436000       0.17838000
    43  H          0.46800000       0.52340000       0.76260000
    44  H          0.53200000       0.47660000       0.23740000
    45  C          0.74377000       0.11253000       0.47202000
    46  C          0.25623000       0.88747000       0.52798000
    47  O          0.69428000       0.16762000       0.57379160
    48  O          0.30572000       0.83238000       0.42620840
    49  O          0.62598000      -0.02082000       0.36859160
    50  O          0.37402000       0.02082000       0.63140840
    51  H          0.52520000       0.93580000       0.38810000
    52  H          0.47480000       0.06420000       0.61190000
