data_NADQAL02
_symmetry_space_group_name_H-M    'P1'
_symmetry_Int_Tables_number       1
loop_
_symmetry_equiv_pos_site_id
_symmetry_equiv_pos_as_xyz
1 x,y,z
_cell_length_a                   7.0156
_cell_length_b                   10.5138
_cell_length_c                   10.5436
_cell_angle_alpha                90.0
_cell_angle_beta                 94.256
_cell_angle_gamma                90.0
loop_
_atom_site_label
_atom_site_type_symbol
_atom_site_fract_x
_atom_site_fract_y
_atom_site_fract_z
     1  O          0.93697180       0.49269120       0.33912110
     2  O          0.06302820      -0.00730880       0.16087890
     3  O          0.06302820       0.50730880       0.66087890
     4  O          0.93697180       0.00730880       0.83912110
     5  H          0.86030000       0.43420000       0.30620000
     6  H          0.13970000       0.93420000       0.19380000
     7  H          0.13970000       0.56580000       0.69380000
     8  H          0.86030000       0.06580000       0.80620000
     9  O          0.82679170       0.68162120       0.50586110
    10  O          0.17320830       0.18162120      -0.00586110
    11  O          0.17320830       0.31837880       0.49413890
    12  O          0.82679170       0.81837880       0.00586110
    13  H          0.88240000       0.60520000       0.52520000
    14  H          0.11760000       0.10520000       0.97480000
    15  H          0.11760000       0.39480000       0.47480000
    16  H          0.88240000       0.89480000       0.02520000
    17  O          0.55768150       0.86986900       0.40816100
    18  O          0.44231850       0.36986900       0.09183900
    19  O          0.44231850       0.13013100       0.59183900
    20  O          0.55768150       0.63013100       0.90816100
    21  C          0.87493000       0.61332160       0.29172170
    22  C          0.12507000       0.11332160       0.20827830
    23  C          0.12507000       0.38667840       0.70827830
    24  C          0.87493000       0.88667840       0.79172170
    25  H          0.80530000       0.60891800       0.20841800
    26  H          0.19470000       0.10891800       0.29158200
    27  H          0.19470000       0.39108200       0.79158200
    28  H          0.80530000       0.89108200       0.70841800
    29  H         -0.01070000       0.67120000       0.28391800
    30  H          0.01070000       0.17120000       0.21608200
    31  H          0.01070000       0.32880000       0.71608200
    32  H         -0.01070000       0.82880000       0.78391800
    33  C          0.74512000       0.67800140       0.38011140
    34  C          0.25488000       0.17800140       0.11988860
    35  C          0.25488000       0.32199860       0.61988860
    36  C          0.74512000       0.82199860       0.88011140
    37  C          0.70252000       0.81280160       0.33747160
    38  C          0.29748000       0.31280160       0.16252840
    39  C          0.29748000       0.18719840       0.66252840
    40  C          0.70252000       0.68719840       0.83747160
    41  H          0.66030000       0.81241800       0.24731800
    42  H          0.33970000       0.31241800       0.25268200
    43  H          0.33970000       0.18758200       0.75268200
    44  H          0.66030000       0.68758200       0.74731800
    45  H          0.81230000       0.86841900       0.35201700
    46  H          0.18770000       0.36841900       0.14798300
    47  H          0.18770000       0.13158100       0.64798300
    48  H          0.81230000       0.63158100       0.85201700
    49  O          0.33949190       0.87884120       0.61656100
    50  O          0.66050810       0.37884120       0.88343900
    51  O          0.66050810       0.12115880       0.38343900
    52  O          0.33949190       0.62115880       0.11656100
    53  H          0.41430000       0.93720000       0.61961800
    54  H          0.58570000       0.43720000       0.88038200
    55  H          0.58570000       0.06280000       0.38038200
    56  H          0.41430000       0.56280000       0.11961800
    57  O          0.29096170       0.80344110       0.28147100
    58  O          0.70903830       0.30344110       0.21852900
    59  O          0.70903830       0.19655890       0.71852900
    60  O          0.29096170       0.69655890       0.78147100
    61  H          0.32330000       0.73930000       0.23620000
    62  H          0.67670000       0.23930000       0.26380000
    63  H          0.67670000       0.26070000       0.76380000
    64  H          0.32330000       0.76070000       0.73620000
    65  O          0.57155150       0.60671900       0.37206100
    66  O          0.42844850       0.10671900       0.12793900
    67  O          0.42844850       0.39328100       0.62793900
    68  O          0.57155150       0.89328100       0.87206100
    69  C          0.25493000       0.86447160       0.49151130
    70  C          0.74507000       0.36447160       0.00848870
    71  C          0.74507000       0.13552840       0.50848870
    72  C          0.25493000       0.63552840      -0.00848870
    73  H          0.14330000       0.81171800       0.49701700
    74  H          0.85670000       0.31171800       0.00298300
    75  H          0.85670000       0.18828200       0.50298300
    76  H          0.14330000       0.68828200      -0.00298300
    77  H          0.22320000       0.94891900       0.45531600
    78  H          0.77680000       0.44891900       0.04468400
    79  H          0.77680000       0.05108100       0.54468400
    80  H          0.22320000       0.55108100       0.95531600
    81  C          0.38482000       0.79770140       0.40389130
    82  C          0.61518000       0.29770140       0.09610870
    83  C          0.61518000       0.20229860       0.59610870
    84  C          0.38482000       0.70229860       0.90389130
    85  C          0.42952000       0.66210140       0.44510150
    86  C          0.57048000       0.16210140       0.05489850
    87  C          0.57048000       0.33789860       0.55489850
    88  C          0.42952000       0.83789860       0.94510150
    89  H          0.47020000       0.65881800       0.53451800
    90  H          0.52980000       0.15881800       0.96548200
    91  H          0.52980000       0.34118200       0.46548200
    92  H          0.47020000       0.84118200       0.03451800
    93  H          0.31430000       0.61041800       0.43001700
    94  H          0.68570000       0.11041800       0.06998300
    95  H          0.68570000       0.38958200       0.56998300
    96  H          0.31430000       0.88958200       0.93001700
