data_NADQAL01
_symmetry_space_group_name_H-M    'P1'
_symmetry_Int_Tables_number       1
loop_
_symmetry_equiv_pos_site_id
_symmetry_equiv_pos_as_xyz
1 x,y,z
_cell_length_a                   5.4993
_cell_length_b                   5.5283
_cell_length_c                   7.1704
_cell_angle_alpha                95.124
_cell_angle_beta                 102.434
_cell_angle_gamma                116.224
loop_
_atom_site_label
_atom_site_type_symbol
_atom_site_fract_x
_atom_site_fract_y
_atom_site_fract_z
     1  O          0.22432000       0.80272000       0.11924150
     2  O          0.77568000       0.19728000       0.88075850
     3  H          0.23540000       0.94750000       0.16730000
     4  H          0.76460000       0.05250000       0.83270000
     5  O          0.21842000       0.30953180       0.20087130
     6  O          0.78158000       0.69046820       0.79912870
     7  H          0.09040000       0.32640000       0.13230000
     8  H          0.90960000       0.67360000       0.86770000
     9  O          0.33868180       0.63791180       0.47736120
    10  O          0.66131820       0.36208820       0.52263880
    11  C          0.47973000       0.79723000       0.20472000
    12  C          0.52027000       0.20277000       0.79528000
    13  H          0.61830000      -0.03170000       0.29220000
    14  H          0.38170000       0.03170000       0.70780000
    15  H          0.55740000       0.76540000       0.10330000
    16  H          0.44260000       0.23460000       0.89670000
    17  C          0.42682000       0.56902000       0.31779170
    18  C          0.57318000       0.43098000       0.68220830
    19  C          0.69573000       0.54953000       0.39348190
    20  C          0.30427000       0.45047000       0.60651810
    21  H          0.85330000       0.73330000       0.45820000
    22  H          0.14670000       0.26670000       0.54180000
    23  H          0.74430000       0.48230000       0.28920000
    24  H          0.25570000       0.51770000       0.71080000
