data_NADQAL
_symmetry_space_group_name_H-M    'P1'
_symmetry_Int_Tables_number       1
loop_
_symmetry_equiv_pos_site_id
_symmetry_equiv_pos_as_xyz
1 x,y,z
_cell_length_a                   6.8315
_cell_length_b                   6.2744
_cell_length_c                   9.1946
_cell_angle_alpha                90.0
_cell_angle_beta                 94.796
_cell_angle_gamma                90.0
loop_
_atom_site_label
_atom_site_type_symbol
_atom_site_fract_x
_atom_site_fract_y
_atom_site_fract_z
     1  O          0.09062000       0.19632000       0.63687140
     2  O          0.90938000       0.69632000       0.86312860
     3  O          0.90938000       0.80368000       0.36312860
     4  O          0.09062000       0.30368000       0.13687140
     5  H         -0.00530000       0.30040000       0.59820000
     6  H          0.00530000       0.80040000       0.90180000
     7  H          0.00530000       0.69960000       0.40180000
     8  H         -0.00530000       0.19960000       0.09820000
     9  O          0.19322000       0.49613000       0.39743160
    10  O          0.80678000      -0.00387000       0.10256840
    11  O          0.80678000       0.50387000       0.60256840
    12  O          0.19322000       0.00387000       0.89743160
    13  H          0.15730000       0.43830000       0.33191800
    14  H          0.84270000       0.93830000       0.16808200
    15  H          0.84270000       0.56170000       0.66808200
    16  H          0.15730000       0.06170000       0.83191800
    17  O          0.49160160       0.31222000       0.41830120
    18  O          0.50839840       0.81222000       0.08169880
    19  O          0.50839840       0.68778000       0.58169880
    20  O          0.49160160       0.18778000       0.91830120
    21  C          0.23653000       0.16574000       0.53552000
    22  C          0.76347000       0.66574000       0.96448000
    23  C          0.76347000       0.83426000       0.46448000
    24  C          0.23653000       0.33426000       0.03552000
    25  H          0.32820000       0.05730000       0.59511700
    26  H          0.67180000       0.55730000       0.90488300
    27  H          0.67180000       0.94270000       0.40488300
    28  H          0.32820000       0.44270000       0.09511700
    29  H          0.17920000       0.09820000       0.44591600
    30  H          0.82080000       0.59820000       0.05408400
    31  H          0.82080000       0.90180000       0.55408400
    32  H          0.17920000       0.40180000       0.94591600
    33  C          0.32563000       0.37473000       0.49152000
    34  C          0.67437000       0.87473000       0.00848000
    35  C          0.67437000       0.62527000       0.50848000
    36  C          0.32563000       0.12527000      -0.00848000
    37  C          0.38843000       0.51384000       0.62182000
    38  C          0.61157000       0.01384000       0.87818000
    39  C          0.61157000       0.48616000       0.37818000
    40  C          0.38843000      -0.01384000       0.12182000
    41  H          0.26720000       0.58520000       0.66031500
    42  H          0.73280000       0.08520000       0.83968500
    43  H          0.73280000       0.41480000       0.33968500
    44  H          0.26720000       0.91480000       0.16031500
    45  H          0.46520000       0.41730000       0.69401700
    46  H          0.53480000       0.91730000       0.80598300
    47  H          0.53480000       0.58270000       0.30598300
    48  H          0.46520000       0.08270000       0.19401700
