data_NBZANO11
_symmetry_space_group_name_H-M    'P1'
_symmetry_Int_Tables_number       1
loop_
_symmetry_equiv_pos_site_id
_symmetry_equiv_pos_as_xyz
1 x,y,z
_cell_length_a                   8.4024
_cell_length_b                   27.73991
_cell_length_c                   5.85426
_cell_angle_alpha                90.0
_cell_angle_beta                 90.0
_cell_angle_gamma                90.0
loop_
_atom_site_label
_atom_site_type_symbol
_atom_site_fract_x
_atom_site_fract_y
_atom_site_fract_z
     1  O          0.66180000       0.06440000       0.79980000
     2  O          0.16180000       0.43560000       0.20020000
     3  O          0.33820000       0.56440000       0.70020000
     4  O          0.83820000       0.93560000       0.29980000
     5  O          0.62030000       0.13850000       0.72280000
     6  O          0.12030000       0.36150000       0.27720000
     7  O          0.37970000       0.63850000       0.77720000
     8  O          0.87970000       0.86150000       0.22280000
     9  N          0.68220000       0.09970000       0.68010000
    10  N          0.18220000       0.40030000       0.31990000
    11  N          0.31780000       0.59970000       0.81990000
    12  N          0.81780000       0.90030000       0.18010000
    13  C          0.95280000       0.04810000       0.24610000
    14  C          0.45280000       0.45190000       0.75390000
    15  C          0.04720000       0.54810000       0.25390000
    16  C          0.54720000       0.95190000       0.74610000
    17  H         -0.00150000       0.01950000       0.21450000
    18  H          0.49850000       0.48050000       0.78550000
    19  H          0.00150000       0.51950000       0.28550000
    20  H          0.50150000       0.98050000       0.71450000
    21  C          0.85060000       0.05200000       0.43460000
    22  C          0.35060000       0.44800000       0.56540000
    23  C          0.14940000       0.55200000       0.06540000
    24  C          0.64940000       0.94800000       0.93460000
    25  H          0.83030000       0.02640000       0.52440000
    26  H          0.33030000       0.47360000       0.47560000
    27  H          0.16970000       0.52640000       0.97560000
    28  H          0.66970000       0.97360000       0.02440000
    29  C          0.78280000       0.09570000       0.47930000
    30  C          0.28280000       0.40430000       0.52070000
    31  C          0.21720000       0.59570000       0.02070000
    32  C          0.71720000       0.90430000      -0.02070000
    33  C          0.81090000       0.13570000       0.34490000
    34  C          0.31090000       0.36430000       0.65510000
    35  C          0.18910000       0.63570000       0.15510000
    36  C          0.68910000       0.86430000       0.84490000
    37  H          0.76790000       0.16440000       0.38090000
    38  H          0.26790000       0.33560000       0.61910000
    39  H          0.23210000       0.66440000       0.11910000
    40  H          0.73210000       0.83560000       0.88090000
    41  C          0.90400000       0.13090000       0.16040000
    42  C          0.40400000       0.36910000       0.83960000
    43  C          0.09600000       0.63090000       0.33960000
    44  C          0.59600000       0.86910000       0.66040000
    45  H          0.91520000       0.15640000       0.06650000
    46  H          0.41520000       0.34360000       0.93350000
    47  H          0.08480000       0.65640000       0.43350000
    48  H          0.58480000       0.84360000       0.56650000
    49  C         -0.01550000       0.08810000       0.10480000
    50  C          0.48450000       0.41190000       0.89520000
    51  C          0.01550000       0.58810000       0.39520000
    52  C          0.51550000       0.91190000       0.60480000
    53  N          0.08240000       0.08220000       0.92260000
    54  N          0.58240000       0.41780000       0.07740000
    55  N          0.91760000       0.58220000       0.57740000
    56  N          0.41760000       0.91780000       0.42260000
    57  H          0.12530000       0.05330000       0.89090000
    58  H          0.62530000       0.44670000       0.10910000
    59  H          0.87470000       0.55330000       0.60910000
    60  H          0.37470000       0.94670000       0.39090000
    61  N          0.11280000       0.12130000       0.78900000
    62  N          0.61280000       0.37870000       0.21100000
    63  N          0.88720000       0.62130000       0.71100000
    64  N          0.38720000       0.87870000       0.28900000
    65  C          0.20720000       0.11590000       0.61270000
    66  C          0.70720000       0.38410000       0.38730000
    67  C          0.79280000       0.61590000       0.88730000
    68  C          0.29280000       0.88410000       0.11270000
    69  C          0.22110000       0.16000000       0.46860000
    70  C          0.72110000       0.34000000       0.53140000
    71  C          0.77890000       0.66000000       0.03140000
    72  C          0.27890000       0.84000000       0.96860000
    73  C          0.14180000       0.20470000       0.51560000
    74  C          0.64180000       0.29530000       0.48440000
    75  C          0.85820000       0.70470000      -0.01560000
    76  C          0.35820000       0.79530000       0.01560000
    77  H          0.08270000       0.20680000       0.64340000
    78  H          0.58270000       0.29320000       0.35660000
    79  H          0.91730000       0.70680000       0.85660000
    80  H          0.41730000       0.79320000       0.14340000
    81  C          0.15090000       0.24360000       0.38090000
    82  C          0.65090000       0.25640000       0.61910000
    83  C          0.84910000       0.74360000       0.11910000
    84  C          0.34910000       0.75640000       0.88090000
    85  H          0.09950000       0.27120000       0.41560000
    86  H          0.59950000       0.22880000       0.58440000
    87  H          0.90050000       0.77120000       0.08440000
    88  H          0.40050000       0.72880000       0.91560000
    89  C          0.24120000       0.24030000       0.18960000
    90  C          0.74120000       0.25970000       0.81040000
    91  C          0.75880000       0.74030000       0.31040000
    92  C          0.25880000       0.75970000       0.68960000
    93  H          0.24770000       0.26570000       0.09450000
    94  H          0.74770000       0.23430000       0.90550000
    95  H          0.75230000       0.76570000       0.40550000
    96  H          0.25230000       0.73430000       0.59450000
    97  C          0.32410000       0.19840000       0.13500000
    98  C          0.82410000       0.30160000       0.86500000
    99  C          0.67590000       0.69840000       0.36500000
   100  C          0.17590000       0.80160000       0.63500000
   101  H          0.38140000       0.19730000       0.00520000
   102  H          0.88140000       0.30270000      -0.00520000
   103  H          0.61860000       0.69730000       0.49480000
   104  H          0.11860000       0.80270000       0.50520000
   105  C          0.31980000       0.15830000       0.27600000
   106  C          0.81980000       0.34170000       0.72400000
   107  C          0.68020000       0.65830000       0.22400000
   108  C          0.18020000       0.84170000       0.77600000
   109  C          0.38920000       0.11460000       0.21560000
   110  C          0.88920000       0.38540000       0.78440000
   111  C          0.61080000       0.61460000       0.28440000
   112  C          0.11080000       0.88540000       0.71560000
   113  H          0.44380000       0.11380000       0.08340000
   114  H          0.94380000       0.38620000       0.91660000
   115  H          0.55620000       0.61380000       0.41660000
   116  H          0.05620000       0.88620000       0.58340000
   117  C          0.38210000       0.07410000       0.33810000
   118  C          0.88210000       0.42590000       0.66190000
   119  C          0.61790000       0.57410000       0.16190000
   120  C          0.11790000       0.92590000       0.83810000
   121  H          0.43550000       0.04770000       0.29220000
   122  H          0.93550000       0.45230000       0.70780000
   123  H          0.56450000       0.54770000       0.20780000
   124  H          0.06450000       0.95230000       0.79220000
   125  C          0.28690000       0.07310000       0.54480000
   126  C          0.78690000       0.42690000       0.45520000
   127  C          0.71310000       0.57310000       0.95520000
   128  C          0.21310000       0.92690000       0.04480000
   129  O          0.26950000       0.03470000       0.66010000
   130  O          0.76950000       0.46530000       0.33990000
   131  O          0.73050000       0.53470000       0.83990000
   132  O          0.23050000       0.96530000       0.16010000
