data_NBZANO13
_symmetry_space_group_name_H-M    'P1'
_symmetry_Int_Tables_number       1
loop_
_symmetry_equiv_pos_site_id
_symmetry_equiv_pos_as_xyz
1 x,y,z
_cell_length_a                   15.94216
_cell_length_b                   7.76073
_cell_length_c                   21.80529
_cell_angle_alpha                90.0
_cell_angle_beta                 92.9463
_cell_angle_gamma                90.0
loop_
_atom_site_label
_atom_site_type_symbol
_atom_site_fract_x
_atom_site_fract_y
_atom_site_fract_z
     1  O          0.37338150       0.80183000       0.52502110
     2  O          0.12661850       0.80183000       0.97497890
     3  O          0.62661850       0.19817000       0.47497890
     4  O          0.87338150       0.19817000       0.02502110
     5  O          0.16595150       0.06124000       0.28221110
     6  O          0.33404850       0.06124000       0.21778890
     7  O          0.83404850       0.93876000       0.71778890
     8  O          0.66595150       0.93876000       0.78221110
     9  O          0.22248160       0.85426000       0.33530110
    10  O          0.27751840       0.85426000       0.16469890
    11  O          0.77751840       0.14574000       0.66469890
    12  O          0.72248160       0.14574000       0.83530110
    13  N          0.41211140       0.44294000       0.53411110
    14  N          0.08788860       0.44294000       0.96588890
    15  N          0.58788860       0.55706000       0.46588890
    16  N          0.91211140       0.55706000       0.03411110
    17  N          0.36077150       0.48964000       0.48780110
    18  N          0.13922850       0.48964000       0.01219890
    19  N          0.63922850       0.51036000       0.51219890
    20  N          0.86077150       0.51036000       0.98780110
    21  H          0.34899300       0.59670700       0.48212900
    22  H          0.15100700       0.59670700       0.01787100
    23  H          0.65100700       0.40329300       0.51787100
    24  H          0.84899300       0.40329300       0.98212900
    25  N          0.21084180       0.00785000       0.32510140
    26  N          0.28915820       0.00785000       0.17489860
    27  N          0.78915820      -0.00785000       0.67489860
    28  N          0.71084180      -0.00785000       0.82510140
    29  C          0.42072000       0.74525000       0.56811150
    30  C          0.07928000       0.74525000       0.93188850
    31  C          0.57928000       0.25475000       0.43188850
    32  C          0.92072000       0.25475000       0.06811150
    33  C          0.45462000       0.85615000       0.61549160
    34  C          0.04538000       0.85615000       0.88450840
    35  C          0.54538000       0.14385000       0.38450840
    36  C          0.95462000       0.14385000       0.11549160
    37  H          0.44315900       0.97352500       0.61316500
    38  H          0.05684100       0.97352500       0.88683500
    39  H          0.55684100       0.02647500       0.38683500
    40  H          0.94315900       0.02647500       0.11316500
    41  C          0.50242000       0.79615000       0.66318160
    42  C         -0.00242000       0.79615000       0.83681840
    43  C          0.49758000       0.20385000       0.33681840
    44  C          0.00242000       0.20385000       0.16318160
    45  H          0.52170500       0.87302300       0.69344200
    46  H          0.97829500       0.87302300       0.80655800
    47  H          0.47829500       0.12697700       0.30655800
    48  H          0.02170500       0.12697700       0.19344200
    49  C          0.52488190       0.61885000       0.66924150
    50  C          0.97511810       0.61885000       0.83075850
    51  C          0.47511810       0.38115000       0.33075850
    52  C          0.02488190       0.38115000       0.16924150
    53  C          0.57602000       0.56126000       0.71934150
    54  C          0.92398000       0.56126000       0.78065850
    55  C          0.42398000       0.43874000       0.28065850
    56  C          0.07602000       0.43874000       0.21934150
    57  H          0.59367100       0.63845500       0.74993500
    58  H          0.90632900       0.63845500       0.75006500
    59  H          0.40632900       0.36154500       0.25006500
    60  H          0.09367100       0.36154500       0.24993500
    61  C          0.60012000       0.39276000       0.72361170
    62  C          0.89988000       0.39276000       0.77638830
    63  C          0.39988000       0.60724000       0.27638830
    64  C          0.10012000       0.60724000       0.22361170
    65  H          0.63389400       0.35534600       0.75700600
    66  H          0.86610600       0.35534600       0.74299400
    67  H          0.36610600       0.64465400       0.24299400
    68  H          0.13389400       0.64465400       0.25700600
    69  C          0.57402000       0.27825000       0.67818160
    70  C          0.92598000       0.27825000       0.82181840
    71  C          0.42598000       0.72175000       0.32181840
    72  C          0.07402000       0.72175000       0.17818160
    73  H          0.59100700       0.16367600       0.68097000
    74  H          0.90899300       0.16367600       0.81903000
    75  H          0.40899300       0.83632400       0.31903000
    76  H          0.09100700       0.83632400       0.18097000
    77  C          0.52322190       0.33085000       0.62883140
    78  C          0.97677810       0.33085000       0.87116860
    79  C          0.47677810       0.66915000       0.37116860
    80  C          0.02322190       0.66915000       0.12883140
    81  H          0.50637600       0.25151600       0.59868400
    82  H         -0.00637600       0.25151600       0.90131600
    83  H          0.49362400       0.74848400       0.40131600
    84  H          0.00637600       0.74848400       0.09868400
    85  C          0.49662180       0.50185000       0.62336140
    86  C          0.00337820       0.50185000       0.87663860
    87  C          0.50337820       0.49815000       0.37663860
    88  C         -0.00337820       0.49815000       0.12336140
    89  C          0.44150180       0.56345000       0.57257140
    90  C          0.05849820       0.56345000       0.92742860
    91  C          0.55849820       0.43655000       0.42742860
    92  C          0.94150180       0.43655000       0.07257140
    93  C          0.32530180       0.36525000       0.44776130
    94  C          0.17469820       0.36525000       0.05223870
    95  C          0.67469820       0.63475000       0.55223870
    96  C          0.82530180       0.63475000       0.94776130
    97  C          0.34000180       0.19135000       0.45620130
    98  C          0.15999820       0.19135000       0.04379870
    99  C          0.65999820       0.80865000       0.54379870
   100  C          0.84000180       0.80865000       0.95620130
   101  H          0.37498700       0.15350900       0.48889700
   102  H          0.12501300       0.15350900       0.01110300
   103  H          0.62501300       0.84649100       0.51110300
   104  H          0.87498700       0.84649100       0.98889700
   105  C          0.30262180       0.07405000       0.41596140
   106  C          0.19737820       0.07405000       0.08403860
   107  C          0.69737820       0.92595000       0.58403860
   108  C          0.80262180       0.92595000       0.91596140
   109  H          0.31132900       0.95641600       0.42163300
   110  H          0.18867100       0.95641600       0.07836700
   111  H          0.68867100       0.04358400       0.57836700
   112  H          0.81132900       0.04358400       0.92163300
   113  C          0.25214190       0.13315000       0.36718140
   114  C          0.24785810       0.13315000       0.13281860
   115  C          0.74785810       0.86685000       0.63281860
   116  C          0.75214190       0.86685000       0.86718140
   117  C          0.23777190       0.30505000       0.35803140
   118  C          0.26222810       0.30505000       0.14196860
   119  C          0.76222810       0.69495000       0.64196860
   120  C          0.73777190       0.69495000       0.85803140
   121  H          0.20363500       0.34252200       0.32481200
   122  H          0.29636500       0.34252200       0.17518800
   123  H          0.79636500       0.65747800       0.67518800
   124  H          0.70363500       0.65747800       0.82481200
   125  C          0.27430190       0.42155000       0.39844140
   126  C          0.22569810       0.42155000       0.10155860
   127  C          0.72569810       0.57845000       0.60155860
   128  C          0.77430190       0.57845000       0.89844140
   129  H          0.26480200       0.53872000       0.39270000
   130  H          0.23519800       0.53872000       0.10730000
   131  H          0.73519800       0.46128000       0.60730000
   132  H          0.76480200       0.46128000       0.89270000
   133  O          0.16587150       0.71327000       0.49712100
   134  O          0.33412850       0.71327000       0.00287900
   135  O          0.83412850       0.28673000       0.50287900
   136  O          0.66587150       0.28673000      -0.00287900
   137  O          0.35316140       0.46854000       0.74150110
   138  O          0.14683860       0.46854000       0.75849890
   139  O          0.64683860       0.53146000       0.25849890
   140  O          0.85316140       0.53146000       0.24150110
   141  O          0.29937170       0.67244000       0.68458120
   142  O          0.20062830       0.67244000       0.81541880
   143  O          0.70062830       0.32756000       0.31541880
   144  O          0.79937170       0.32756000       0.18458120
   145  N          0.11842140       0.06774000       0.48912110
   146  N          0.38157860       0.06774000       0.01087890
   147  N          0.88157860       0.93226000       0.51087890
   148  N          0.61842140       0.93226000       0.98912110
   149  N          0.17381150       0.02684000       0.53374110
   150  N          0.32618850       0.02684000       0.96625890
   151  N          0.82618850       0.97316000       0.46625890
   152  N          0.67381150       0.97316000       0.03374110
   153  H          0.18949200       0.92136500       0.53851800
   154  H          0.31050800       0.92136500       0.96148200
   155  H          0.81050800       0.07863500       0.46148200
   156  H          0.68949200       0.07863500       0.03851800
   157  N          0.31202180       0.51905000       0.69579140
   158  N          0.18797820       0.51905000       0.80420860
   159  N          0.68797820       0.48095000       0.30420860
   160  N          0.81202180       0.48095000       0.19579140
   161  C          0.11232000       0.76355000       0.45752150
   162  C          0.38768000       0.76355000       0.04247850
   163  C          0.88768000       0.23645000       0.54247850
   164  C          0.61232000       0.23645000       0.95752150
   165  C          0.07312000       0.64565000       0.41523160
   166  C          0.42688000       0.64565000       0.08476840
   167  C          0.92688000       0.35435000       0.58476840
   168  C          0.57312000       0.35435000       0.91523160
   169  H          0.08570100       0.52898500       0.41876200
   170  H          0.41429900       0.52898500       0.08123800
   171  H          0.91429900       0.47101500       0.58123800
   172  H          0.58570100       0.47101500       0.91876200
   173  C          0.01862000       0.69865000       0.37035160
   174  C          0.48138000       0.69865000       0.12964840
   175  C          0.98138000       0.30135000       0.62964840
   176  C          0.51862000       0.30135000       0.87035160
   177  H         -0.00443500       0.61705500       0.34316000
   178  H          0.50443500       0.61705500       0.15684000
   179  H          0.00443500       0.38294500       0.65684000
   180  H          0.49556500       0.38294500       0.84316000
   181  C         -0.00590190       0.87435000       0.36234140
   182  C          0.50590190       0.87435000       0.13765860
   183  C          0.00590190       0.12565000       0.63765860
   184  C          0.49409810       0.12565000       0.86234140
   185  C          0.93808000       0.92434000       0.31482160
   186  C          0.56192000       0.92434000       0.18517840
   187  C          0.06192000       0.07566000       0.68517840
   188  C          0.43808000       0.07566000       0.81482160
   189  H          0.91687500       0.84132200       0.28743900
   190  H          0.58312500       0.84132200       0.21256100
   191  H          0.08312500       0.15867800       0.71256100
   192  H          0.41687500       0.15867800       0.78743900
   193  C          0.91298000       0.09177000       0.30699170
   194  C          0.58702000       0.09177000       0.19300830
   195  C          0.08702000       0.90823000       0.69300830
   196  C          0.41298000       0.90823000       0.80699170
   197  H          0.87530100       0.12216600       0.27486300
   198  H          0.62469900       0.12216600       0.22513700
   199  H          0.12469900       0.87783400       0.72513700
   200  H          0.37530100       0.87783400       0.77486300
   201  C          0.94478000       0.21496000       0.34767170
   202  C          0.55522000       0.21496000       0.15232830
   203  C          0.05522000       0.78504000       0.65232830
   204  C          0.44478000       0.78504000       0.84767170
   205  H          0.92832600       0.32935500       0.34302700
   206  H          0.57167400       0.32935500       0.15697300
   207  H          0.07167400       0.67064500       0.65697300
   208  H          0.42832600       0.67064500       0.84302700
   209  C          0.00112000       0.16845000       0.39541150
   210  C          0.49888000       0.16845000       0.10458850
   211  C         -0.00112000       0.83155000       0.60458850
   212  C          0.50112000       0.83155000       0.89541150
   213  H          0.02160200       0.25235800       0.42268000
   214  H          0.47839800       0.25235800       0.07732000
   215  H          0.97839800       0.74764200       0.57732000
   216  H          0.52160200       0.74764200       0.92268000
   217  C          0.02763180      -0.00125000       0.40333130
   218  C          0.47236820      -0.00125000       0.09666870
   219  C          0.97236820       0.00125000       0.59666870
   220  C          0.52763180       0.00125000       0.90333130
   221  C          0.08792170       0.94485000       0.45220130
   222  C          0.41207830       0.94485000       0.04779870
   223  C          0.91207830       0.05515000       0.54779870
   224  C          0.58792170       0.05515000       0.95220130
   225  C          0.20712180       0.15385000       0.57325130
   226  C          0.29287820       0.15385000       0.92674870
   227  C          0.79287820       0.84615000       0.42674870
   228  C          0.70712180       0.84615000       0.07325130
   229  C          0.18902000       0.32645000       0.56479150
   230  C          0.31098000       0.32645000       0.93520850
   231  C          0.81098000       0.67355000       0.43520850
   232  C          0.68902000       0.67355000       0.06479150
   233  H          0.15322400       0.36155000       0.53214000
   234  H          0.34677600       0.36155000       0.96786000
   235  H          0.84677600       0.63845000       0.46786000
   236  H          0.65322400       0.63845000       0.03214000
   237  C          0.22409190       0.44595000       0.60484140
   238  C          0.27590810       0.44595000       0.89515860
   239  C          0.77590810       0.55405000       0.39515860
   240  C          0.72409190       0.55405000       0.10484140
   241  H          0.21276400       0.56254100       0.59927000
   242  H          0.28723600       0.56254100       0.90073000
   243  H          0.78723600       0.43745900       0.40073000
   244  H          0.71276400       0.43745900       0.09927000
   245  C          0.27622000       0.39145000       0.65333140
   246  C          0.22378000       0.39145000       0.84666860
   247  C          0.72378000       0.60855000       0.34666860
   248  C          0.77622000       0.60855000       0.15333140
   249  C          0.29491190       0.22076000       0.66212140
   250  C          0.20508810       0.22076000       0.83787860
   251  C          0.70508810       0.77924000       0.33787860
   252  C          0.79491190       0.77924000       0.16212140
   253  H          0.33061100       0.18644400       0.69493000
   254  H          0.16938900       0.18644400       0.80507000
   255  H          0.66938900       0.81355600       0.30507000
   256  H          0.83061100       0.81355600       0.19493000
   257  C          0.26043190       0.10075000       0.62202150
   258  C          0.23956810       0.10075000       0.87797850
   259  C          0.73956810       0.89925000       0.37797850
   260  C          0.76043190       0.89925000       0.12202150
   261  H          0.27271400      -0.01556700       0.62747800
   262  H          0.22728600      -0.01556700       0.87252200
   263  H          0.72728600       0.01556700       0.37252200
   264  H          0.77271400       0.01556700       0.12747800
