data_NBZANO12
_symmetry_space_group_name_H-M    'P1'
_symmetry_Int_Tables_number       1
loop_
_symmetry_equiv_pos_site_id
_symmetry_equiv_pos_as_xyz
1 x,y,z
_cell_length_a                   32.5813
_cell_length_b                   3.73893
_cell_length_c                   26.6502
_cell_angle_alpha                90.0
_cell_angle_beta                 125.98201
_cell_angle_gamma                90.0
loop_
_atom_site_label
_atom_site_type_symbol
_atom_site_fract_x
_atom_site_fract_y
_atom_site_fract_z
     1  N          0.01158400       0.50423000       0.39012500
     2  N          0.98841600       0.50423000       0.10987500
     3  N          0.51158400       0.00423000       0.39012500
     4  N          0.48841600       0.00423000       0.10987500
     5  N          0.98841600       0.49577000       0.60987500
     6  N          0.01158400       0.49577000       0.89012500
     7  N          0.48841600      -0.00423000       0.60987500
     8  N          0.51158400      -0.00423000       0.89012500
     9  N          0.97777400       0.36023000       0.39638600
    10  N          0.02222600       0.36023000       0.10361400
    11  N          0.47777400       0.86023000       0.39638600
    12  N          0.52222600       0.86023000       0.10361400
    13  N          0.02222600       0.63977000       0.60361400
    14  N          0.97777400       0.63977000       0.89638600
    15  N          0.52222600       0.13977000       0.60361400
    16  N          0.47777400       0.13977000       0.89638600
    17  N          0.77495400       0.24873000       0.19123600
    18  N          0.22504600       0.24873000       0.30876400
    19  N          0.27495400       0.74873000       0.19123600
    20  N          0.72504600       0.74873000       0.30876400
    21  N          0.22504600       0.75127000       0.80876400
    22  N          0.77495400       0.75127000       0.69123600
    23  N          0.72504600       0.25127000       0.80876400
    24  N          0.27495400       0.25127000       0.69123600
    25  O          0.04997400       0.26333000       0.51219500
    26  O          0.95002600       0.26333000       0.98780500
    27  O          0.54997400       0.76333000       0.51219500
    28  O          0.45002600       0.76333000       0.98780500
    29  O          0.95002600       0.73667000       0.48780500
    30  O          0.04997400       0.73667000       0.01219500
    31  O          0.45002600       0.23667000       0.48780500
    32  O          0.54997400       0.23667000       0.01219500
    33  O          0.74494400       0.09053000       0.19707500
    34  O          0.25505600       0.09053000       0.30292500
    35  O          0.24494400       0.59053000       0.19707500
    36  O          0.75505600       0.59053000       0.30292500
    37  O          0.25505600       0.90947000       0.80292500
    38  O          0.74494400       0.90947000       0.69707500
    39  O          0.75505600       0.40947000       0.80292500
    40  O          0.24494400       0.40947000       0.69707500
    41  O          0.76270400       0.38203000       0.14172500
    42  O          0.23729600       0.38203000       0.35827500
    43  O          0.26270400       0.88203000       0.14172500
    44  O          0.73729600       0.88203000       0.35827500
    45  O          0.23729600       0.61797000       0.85827500
    46  O          0.76270400       0.61797000       0.64172500
    47  O          0.73729600       0.11797000       0.85827500
    48  O          0.26270400       0.11797000       0.64172500
    49  C          0.82776500       0.28004000       0.24495600
    50  C          0.17223500       0.28004000       0.25504400
    51  C          0.32776500       0.78004000       0.24495600
    52  C          0.67223500       0.78004000       0.25504400
    53  C          0.17223500       0.71996000       0.75504400
    54  C          0.82776500       0.71996000       0.74495600
    55  C          0.67223500       0.21996000       0.75504400
    56  C          0.32776500       0.21996000       0.74495600
    57  C          0.05922500       0.53244000       0.43850600
    58  C          0.94077500       0.53244000       0.06149400
    59  C          0.55922500       0.03244000       0.43850600
    60  C          0.44077500       0.03244000       0.06149400
    61  C          0.94077500       0.46756000       0.56149400
    62  C          0.05922500       0.46756000       0.93850600
    63  C          0.44077500      -0.03244000       0.56149400
    64  C          0.55922500      -0.03244000       0.93850600
    65  C          0.16271500       0.61734000       0.53794700
    66  C          0.83728500       0.61734000       0.96205300
    67  C          0.66271500       0.11734000       0.53794700
    68  C          0.33728500       0.11734000       0.96205300
    69  C          0.83728500       0.38266000       0.46205300
    70  C          0.16271500       0.38266000       0.03794700
    71  C          0.33728500       0.88266000       0.46205300
    72  C          0.66271500       0.88266000       0.03794700
    73  H          0.19740000       0.65110000       0.57130000
    74  H          0.80260000       0.65110000       0.92870000
    75  H          0.69740000       0.15110000       0.57130000
    76  H          0.30260000       0.15110000       0.92870000
    77  H          0.80260000       0.34890000       0.42870000
    78  H          0.19740000       0.34890000       0.07130000
    79  H          0.30260000       0.84890000       0.42870000
    80  H          0.69740000       0.84890000       0.07130000
    81  C          0.89249500       0.17764000       0.35187600
    82  C          0.10750500       0.17764000       0.14812400
    83  C          0.39249500       0.67764000       0.35187600
    84  C          0.60750500       0.67764000       0.14812400
    85  C          0.10750500       0.82236000       0.64812400
    86  C          0.89249500       0.82236000       0.85187600
    87  C          0.60750500       0.32236000       0.64812400
    88  C          0.39249500       0.32236000       0.85187600
    89  H          0.90320000       0.08990000       0.39130000
    90  H          0.09680000       0.08990000       0.10870000
    91  H          0.40320000       0.58990000       0.39130000
    92  H          0.59680000       0.58990000       0.10870000
    93  H          0.09680000       0.91010000       0.60870000
    94  H          0.90320000       0.91010000       0.89130000
    95  H          0.59680000       0.41010000       0.60870000
    96  H          0.40320000       0.41010000       0.89130000
    97  C          0.07858500       0.40914000       0.50147600
    98  C          0.92141500       0.40914000      -0.00147600
    99  C          0.57858500       0.90914000       0.50147600
   100  C          0.42141500       0.90914000      -0.00147600
   101  C          0.92141500       0.59086000       0.49852400
   102  C          0.07858500       0.59086000       0.00147600
   103  C          0.42141500       0.09086000       0.49852400
   104  C          0.57858500       0.09086000       0.00147600
   105  C          0.09406500       0.69174000       0.42683600
   106  C          0.90593500       0.69174000       0.07316400
   107  C          0.59406500       0.19174000       0.42683600
   108  C          0.40593500       0.19174000       0.07316400
   109  C          0.90593500       0.30826000       0.57316400
   110  C          0.09406500       0.30826000       0.92683600
   111  C          0.40593500       0.80826000       0.57316400
   112  C          0.59406500       0.80826000       0.92683600
   113  C          0.86203500       0.43584000       0.23680700
   114  C          0.13796500       0.43584000       0.26319300
   115  C          0.36203500       0.93584000       0.23680700
   116  C          0.63796500       0.93584000       0.26319300
   117  C          0.13796500       0.56416000       0.76319300
   118  C          0.86203500       0.56416000       0.73680700
   119  C          0.63796500       0.06416000       0.76319300
   120  C          0.36203500       0.06416000       0.73680700
   121  H          0.85100000       0.52350000       0.19730000
   122  H          0.14900000       0.52350000       0.30270000
   123  H          0.35100000       0.02350000       0.19730000
   124  H          0.64900000       0.02350000       0.30270000
   125  H          0.14900000       0.47650000       0.80270000
   126  H          0.85100000       0.47650000       0.69730000
   127  H          0.64900000      -0.02350000       0.80270000
   128  H          0.35100000      -0.02350000       0.69730000
   129  C          0.13203500       0.46384000       0.54972600
   130  C          0.86796500       0.46384000       0.95027400
   131  C          0.63203500      -0.03616000       0.54972600
   132  C          0.36796500      -0.03616000       0.95027400
   133  C          0.86796500       0.53616000       0.45027400
   134  C          0.13203500       0.53616000       0.04972600
   135  C          0.36796500       0.03616000       0.45027400
   136  C          0.63203500       0.03616000       0.04972600
   137  H          0.14570000       0.38890000       0.59080000
   138  H          0.85430000       0.38890000       0.90920000
   139  H          0.64570000       0.88890000       0.59080000
   140  H          0.35430000       0.88890000       0.90920000
   141  H          0.85430000       0.61110000       0.40920000
   142  H          0.14570000       0.61110000       0.09080000
   143  H          0.35430000       0.11110000       0.40920000
   144  H          0.64570000       0.11110000       0.09080000
   145  C          0.92751500       0.33444000       0.34446600
   146  C          0.07248500       0.33444000       0.15553400
   147  C          0.42751500       0.83444000       0.34446600
   148  C          0.57248500       0.83444000       0.15553400
   149  C          0.07248500       0.66556000       0.65553400
   150  C          0.92751500       0.66556000       0.84446600
   151  C          0.57248500       0.16556000       0.65553400
   152  C          0.42751500       0.16556000       0.84446600
   153  C          0.84225500       0.15044000       0.30181700
   154  C          0.15774500       0.15044000       0.19818300
   155  C          0.34225500       0.65044000       0.30181700
   156  C          0.65774500       0.65044000       0.19818300
   157  C          0.15774500       0.84956000       0.69818300
   158  C          0.84225500       0.84956000       0.80181700
   159  C          0.65774500       0.34956000       0.69818300
   160  C          0.34225500       0.34956000       0.80181700
   161  H          0.81810000       0.04470000       0.30630000
   162  H          0.18190000       0.04470000       0.19370000
   163  H          0.31810000       0.54470000       0.30630000
   164  H          0.68190000       0.54470000       0.19370000
   165  H          0.18190000       0.95530000       0.69370000
   166  H          0.81810000       0.95530000       0.80630000
   167  H          0.68190000       0.45530000       0.69370000
   168  H          0.31810000       0.45530000       0.80630000
   169  C          0.91223500       0.46234000       0.28664600
   170  C          0.08776500       0.46234000       0.21335400
   171  C          0.41223500       0.96234000       0.28664600
   172  C          0.58776500       0.96234000       0.21335400
   173  C          0.08776500       0.53766000       0.71335400
   174  C          0.91223500       0.53766000       0.78664600
   175  C          0.58776500       0.03766000       0.71335400
   176  C          0.41223500       0.03766000       0.78664600
   177  H          0.93630000       0.56660000       0.28170000
   178  H          0.06370000       0.56660000       0.21830000
   179  H          0.43630000       0.06660000       0.28170000
   180  H          0.56370000       0.06660000       0.21830000
   181  H          0.06370000       0.43340000       0.71830000
   182  H          0.93630000       0.43340000       0.78170000
   183  H          0.56370000       0.93340000       0.71830000
   184  H          0.43630000       0.93340000       0.78170000
   185  C          0.14549500       0.73384000       0.47676700
   186  C          0.85450500       0.73384000       0.02323300
   187  C          0.64549500       0.23384000       0.47676700
   188  C          0.35450500       0.23384000       0.02323300
   189  C          0.85450500       0.26616000       0.52323300
   190  C          0.14549500       0.26616000       0.97676700
   191  C          0.35450500       0.76616000       0.52323300
   192  C          0.64549500       0.76616000       0.97676700
   193  C          0.07798600       0.80304000       0.36765700
   194  C          0.92201400       0.80304000       0.13234300
   195  C          0.57798600       0.30304000       0.36765700
   196  C          0.42201400       0.30304000       0.13234300
   197  C          0.92201400       0.19696000       0.63234300
   198  C          0.07798600       0.19696000       0.86765700
   199  C          0.42201400       0.69696000       0.63234300
   200  C          0.57798600       0.69696000       0.86765700
   201  H          0.04330000       0.77840000       0.33360000
   202  H          0.95670000       0.77840000       0.16640000
   203  H          0.54330000       0.27840000       0.33360000
   204  H          0.45670000       0.27840000       0.16640000
   205  H          0.95670000       0.22160000       0.66640000
   206  H          0.04330000       0.22160000       0.83360000
   207  H          0.45670000       0.72160000       0.66640000
   208  H          0.54330000       0.72160000       0.83360000
   209  C          0.17925600       0.88254000       0.46613700
   210  C          0.82074400       0.88254000       0.03386300
   211  C          0.67925600       0.38254000       0.46613700
   212  C          0.32074400       0.38254000       0.03386300
   213  C          0.82074400       0.11746000       0.53386300
   214  C          0.17925600       0.11746000       0.96613700
   215  C          0.32074400       0.61746000       0.53386300
   216  C          0.67925600       0.61746000       0.96613700
   217  H          0.21390000       0.91170000       0.49990000
   218  H          0.78610000       0.91170000       0.00010000
   219  H          0.71390000       0.41170000       0.49990000
   220  H          0.28610000       0.41170000       0.00010000
   221  H          0.78610000       0.08830000       0.50010000
   222  H          0.21390000       0.08830000      -0.00010000
   223  H          0.28610000       0.58830000       0.50010000
   224  H          0.71390000       0.58830000      -0.00010000
   225  C          0.11178600       0.94724000       0.35829700
   226  C          0.88821400       0.94724000       0.14170300
   227  C          0.61178600       0.44724000       0.35829700
   228  C          0.38821400       0.44724000       0.14170300
   229  C          0.88821400       0.05276000       0.64170300
   230  C          0.11178600       0.05276000       0.85829700
   231  C          0.38821400       0.55276000       0.64170300
   232  C          0.61178600       0.55276000       0.85829700
   233  H          0.10020000       0.02090000       0.31780000
   234  H          0.89980000       0.02090000       0.18220000
   235  H          0.60020000       0.52090000       0.31780000
   236  H          0.39980000       0.52090000       0.18220000
   237  H          0.89980000      -0.02090000       0.68220000
   238  H          0.10020000      -0.02090000       0.81780000
   239  H          0.39980000       0.47910000       0.68220000
   240  H          0.60020000       0.47910000       0.81780000
   241  C          0.16304600      -0.01306000       0.40764700
   242  C          0.83695400      -0.01306000       0.09235300
   243  C          0.66304600       0.48694000       0.40764700
   244  C          0.33695400       0.48694000       0.09235300
   245  C          0.83695400       0.01306000       0.59235300
   246  C          0.16304600       0.01306000       0.90764700
   247  C          0.33695400       0.51306000       0.59235300
   248  C          0.66304600       0.51306000       0.90764700
   249  H          0.18630000       0.08450000       0.40080000
   250  H          0.81370000       0.08450000       0.09920000
   251  H          0.68630000       0.58450000       0.40080000
   252  H          0.31370000       0.58450000       0.09920000
   253  H          0.81370000       0.91550000       0.59920000
   254  H          0.18630000       0.91550000       0.90080000
   255  H          0.31370000       0.41550000       0.59920000
   256  H          0.68630000       0.41550000       0.90080000
   257  H          0.98787000       0.29250000       0.43439000
   258  H          0.01213000       0.29250000       0.06561000
   259  H          0.48787000       0.79250000       0.43439000
   260  H          0.51213000       0.79250000       0.06561000
   261  H          0.01213000       0.70750000       0.56561000
   262  H          0.98787000       0.70750000       0.93439000
   263  H          0.51213000       0.20750000       0.56561000
   264  H          0.48787000       0.20750000       0.93439000
