data_NBZOAC02
_symmetry_space_group_name_H-M    'P1'
_symmetry_Int_Tables_number       1
loop_
_symmetry_equiv_pos_site_id
_symmetry_equiv_pos_as_xyz
1 x,y,z
_cell_length_a                   5.4032
_cell_length_b                   5.1532
_cell_length_c                   24.6927
_cell_angle_alpha                90.0
_cell_angle_beta                 96.892
_cell_angle_gamma                90.0
loop_
_atom_site_label
_atom_site_type_symbol
_atom_site_fract_x
_atom_site_fract_y
_atom_site_fract_z
     1  O          0.37990000       0.32160000       0.30320000
     2  O          0.62010000       0.82160000       0.19680000
     3  O          0.62010000       0.67840000       0.69680000
     4  O          0.37990000       0.17840000       0.80320000
     5  O          0.72140000       0.34900000       0.26640000
     6  O          0.27860000       0.84900000       0.23360000
     7  O          0.27860000       0.65100000       0.73360000
     8  O          0.72140000       0.15100000       0.76640000
     9  O          0.78890000       0.26100000       0.49010000
    10  O          0.21110000       0.76100000       0.00990000
    11  O          0.21110000       0.73900000       0.50990000
    12  O          0.78890000       0.23900000       0.99010000
    13  O          0.10110000       0.35710000       0.44100000
    14  O          0.89890000       0.85710000       0.05900000
    15  O          0.89890000       0.64290000       0.55900000
    16  O          0.10110000       0.14290000       0.94100000
    17  N          0.58310000       0.41860000       0.29950000
    18  N          0.41690000       0.91860000       0.20050000
    19  N          0.41690000       0.58140000       0.70050000
    20  N          0.58310000       0.08140000       0.79950000
    21  C          0.66870000       0.63060000       0.33720000
    22  C          0.33130000       0.13060000       0.16280000
    23  C          0.33130000       0.36940000       0.66280000
    24  C          0.66870000       0.86940000       0.83720000
    25  C          0.53920000       0.66930000       0.38170000
    26  C          0.46080000       0.16930000       0.11830000
    27  C          0.46080000       0.33070000       0.61830000
    28  C          0.53920000       0.83070000       0.88170000
    29  C          0.61850000       0.86380000       0.41800000
    30  C          0.38150000       0.36380000       0.08200000
    31  C          0.38150000       0.13620000       0.58200000
    32  C          0.61850000       0.63620000       0.91800000
    33  C          0.82320000       0.01490000       0.40980000
    34  C          0.17680000       0.51490000       0.09020000
    35  C          0.17680000      -0.01490000       0.59020000
    36  C          0.82320000       0.48510000       0.90980000
    37  C          0.95040000       0.96950000       0.36490000
    38  C          0.04960000       0.46950000       0.13510000
    39  C          0.04960000       0.03050000       0.63510000
    40  C          0.95040000       0.53050000       0.86490000
    41  C          0.87550000       0.77460000       0.32800000
    42  C          0.12450000       0.27460000       0.17200000
    43  C          0.12450000       0.22540000       0.67200000
    44  C          0.87550000       0.72540000       0.82800000
    45  C          0.90440000       0.22010000       0.45010000
    46  C          0.09560000       0.72010000       0.04990000
    47  C          0.09560000       0.77990000       0.54990000
    48  C          0.90440000       0.27990000       0.95010000
    49  H          0.38800000       0.56500000       0.38400000
    50  H          0.61200000       0.06500000       0.11600000
    51  H          0.61200000       0.43500000       0.61600000
    52  H          0.38800000       0.93500000       0.88400000
    53  H          0.52800000       0.90100000       0.44900000
    54  H          0.47200000       0.40100000       0.05100000
    55  H          0.47200000       0.09900000       0.55100000
    56  H          0.52800000       0.59900000       0.94900000
    57  H          0.07800000       0.07300000       0.36200000
    58  H          0.92200000       0.57300000       0.13800000
    59  H          0.92200000       0.92700000       0.63800000
    60  H          0.07800000       0.42700000       0.86200000
    61  H          0.95300000       0.75200000       0.29800000
    62  H          0.04700000       0.25200000       0.20200000
    63  H          0.04700000       0.24800000       0.70200000
    64  H          0.95300000       0.74800000       0.79800000
    65  H          0.15300000       0.49900000       0.47400000
    66  H          0.84700000      -0.00100000       0.02600000
    67  H          0.84700000       0.50100000       0.52600000
    68  H          0.15300000       0.00100000       0.97400000
