data_NBZOAC17
_symmetry_space_group_name_H-M    'P1'
_symmetry_Int_Tables_number       1
loop_
_symmetry_equiv_pos_site_id
_symmetry_equiv_pos_as_xyz
1 x,y,z
_cell_length_a                   6.4435
_cell_length_b                   7.5676
_cell_length_c                   14.11313
_cell_angle_alpha                90.0
_cell_angle_beta                 90.83117
_cell_angle_gamma                90.0
loop_
_atom_site_label
_atom_site_type_symbol
_atom_site_fract_x
_atom_site_fract_y
_atom_site_fract_z
     1  C          0.65523000       0.29913000       0.40965130
     2  C          0.34477000       0.79913000       0.09034870
     3  C          0.34477000       0.70087000       0.59034870
     4  C          0.65523000       0.20087000       0.90965130
     5  C          0.70793000       0.47833000       0.41085140
     6  C          0.29207000       0.97833000       0.08914860
     7  C          0.29207000       0.52167000       0.58914860
     8  C          0.70793000       0.02167000       0.91085140
     9  C          0.56883000       0.60383000       0.37712140
    10  C          0.43117000       0.10383000       0.12287860
    11  C          0.43117000       0.39617000       0.62287860
    12  C          0.56883000       0.89617000       0.87712140
    13  C          0.37803000       0.54533000       0.34215130
    14  C          0.62197000       0.04533000       0.15784870
    15  C          0.62197000       0.45467000       0.65784870
    16  C          0.37803000       0.95467000       0.84215130
    17  C          0.32203000       0.36993000       0.33774140
    18  C          0.67797000       0.86993000       0.16225860
    19  C          0.67797000       0.63007000       0.66225860
    20  C          0.32203000       0.13007000       0.83774140
    21  C          0.46233000       0.24463000       0.37280140
    22  C          0.53767000       0.74463000       0.12719860
    23  C          0.53767000       0.75537000       0.62719860
    24  C          0.46233000       0.25537000       0.87280140
    25  C          0.80603000       0.16863000       0.44881140
    26  C          0.19397000       0.66863000       0.05118860
    27  C          0.19397000       0.83137000       0.55118860
    28  C          0.80603000       0.33137000       0.94881140
    29  N          0.22732000       0.68023000       0.30901110
    30  N          0.77268000       0.18023000       0.19098890
    31  N          0.77268000       0.31977000       0.69098890
    32  N          0.22732000       0.81977000       0.80901110
    33  O          0.75102000       0.00352000       0.44247110
    34  O          0.24898000       0.50352000       0.05752890
    35  O          0.24898000      -0.00352000       0.55752890
    36  O          0.75102000       0.49648000       0.94247110
    37  O          0.97362000       0.21802000       0.48528100
    38  O          0.02638000       0.71802000       0.01471900
    39  O          0.02638000       0.78198000       0.51471900
    40  O          0.97362000       0.28198000       0.98528100
    41  O          0.26342000       0.83662000       0.32721100
    42  O          0.73658000       0.33662000       0.17278900
    43  O          0.73658000       0.16338000       0.67278900
    44  O          0.26342000       0.66338000       0.82721100
    45  O          0.07112000       0.62892000       0.26545110
    46  O          0.92888000       0.12892000       0.23454890
    47  O          0.92888000       0.37108000       0.73454890
    48  O          0.07112000       0.87108000       0.76545110
    49  H          0.84640000       0.92660000       0.47121900
    50  H          0.15360000       0.42660000       0.02878100
    51  H          0.15360000       0.07340000       0.52878100
    52  H          0.84640000       0.57340000       0.97121900
    53  H          0.84130000       0.51530000       0.43571400
    54  H          0.15870000       0.01530000       0.06428600
    55  H          0.15870000       0.48470000       0.56428600
    56  H          0.84130000      -0.01530000       0.93571400
    57  H          0.59630000       0.73030000       0.37891300
    58  H          0.40370000       0.23030000       0.12108700
    59  H          0.40370000       0.26970000       0.62108700
    60  H          0.59630000       0.76970000       0.87891300
    61  H          0.18830000       0.34030000       0.31201300
    62  H          0.81170000       0.84030000       0.18798700
    63  H          0.81170000       0.65970000       0.68798700
    64  H          0.18830000       0.15970000       0.81201300
    65  H          0.42730000       0.11830000       0.37111500
    66  H          0.57270000       0.61830000       0.12888500
    67  H          0.57270000       0.88170000       0.62888500
    68  H          0.42730000       0.38170000       0.87111500
