data_NBZOAC01
_symmetry_space_group_name_H-M    'P1'
_symmetry_Int_Tables_number       1
loop_
_symmetry_equiv_pos_site_id
_symmetry_equiv_pos_as_xyz
1 x,y,z
_cell_length_a                   12.97
_cell_length_b                   5.07
_cell_length_c                   21.43
_cell_angle_alpha                90.0
_cell_angle_beta                 96.4
_cell_angle_gamma                90.0
loop_
_atom_site_label
_atom_site_type_symbol
_atom_site_fract_x
_atom_site_fract_y
_atom_site_fract_z
     1  C          0.41630000       0.49870000       0.08960000
     2  C          0.41630000      -0.00130000       0.58960000
     3  C          0.08370000       0.49870000       0.91040000
     4  C          0.08370000      -0.00130000       0.41040000
     5  C          0.58370000       0.50130000       0.91040000
     6  C          0.58370000       0.00130000       0.41040000
     7  C          0.91630000       0.50130000       0.08960000
     8  C          0.91630000       0.00130000       0.58960000
     9  C          0.48980000       0.64210000       0.12930000
    10  C          0.48980000       0.14210000       0.62930000
    11  C          0.01020000       0.64210000       0.87070000
    12  C          0.01020000       0.14210000       0.37070000
    13  C          0.51020000       0.35790000       0.87070000
    14  C          0.51020000       0.85790000       0.37070000
    15  C         -0.01020000       0.35790000       0.12930000
    16  C         -0.01020000       0.85790000       0.62930000
    17  C          0.45900000       0.83450000       0.16890000
    18  C          0.45900000       0.33450000       0.66890000
    19  C          0.04100000       0.83450000       0.83110000
    20  C          0.04100000       0.33450000       0.33110000
    21  C          0.54100000       0.16550000       0.83110000
    22  C          0.54100000       0.66550000       0.33110000
    23  C          0.95900000       0.16550000       0.16890000
    24  C          0.95900000       0.66550000       0.66890000
    25  C          0.35360000       0.88810000       0.16660000
    26  C          0.35360000       0.38810000       0.66660000
    27  C          0.14640000       0.88810000       0.83340000
    28  C          0.14640000       0.38810000       0.33340000
    29  C          0.64640000       0.11190000       0.83340000
    30  C          0.64640000       0.61190000       0.33340000
    31  C          0.85360000       0.11190000       0.16660000
    32  C          0.85360000       0.61190000       0.66660000
    33  C          0.27900000       0.74920000       0.12810000
    34  C          0.27900000       0.24920000       0.62810000
    35  C          0.22100000       0.74920000       0.87190000
    36  C          0.22100000       0.24920000       0.37190000
    37  C          0.72100000       0.25080000       0.87190000
    38  C          0.72100000       0.75080000       0.37190000
    39  C          0.77900000       0.25080000       0.12810000
    40  C          0.77900000       0.75080000       0.62810000
    41  C          0.31050000       0.55250000       0.08960000
    42  C          0.31050000       0.05250000       0.58960000
    43  C          0.18950000       0.55250000       0.91040000
    44  C          0.18950000       0.05250000       0.41040000
    45  C          0.68950000       0.44750000       0.91040000
    46  C          0.68950000       0.94750000       0.41040000
    47  C          0.81050000       0.44750000       0.08960000
    48  C          0.81050000       0.94750000       0.58960000
    49  C          0.45250000       0.28780000       0.04900000
    50  C          0.45250000       0.78780000       0.54900000
    51  C          0.04750000       0.28780000       0.95100000
    52  C          0.04750000       0.78780000       0.45100000
    53  C          0.54750000       0.71220000       0.95100000
    54  C          0.54750000       0.21220000       0.45100000
    55  C          0.95250000       0.71220000       0.04900000
    56  C          0.95250000       0.21220000       0.54900000
    57  H          0.40800000       0.03400000       0.99300000
    58  H          0.40800000       0.53400000       0.49300000
    59  H          0.09200000       0.03400000       0.00700000
    60  H          0.09200000       0.53400000       0.50700000
    61  H          0.59200000       0.96600000       0.00700000
    62  H          0.59200000       0.46600000       0.50700000
    63  H          0.90800000       0.96600000       0.99300000
    64  H          0.90800000       0.46600000       0.49300000
    65  H          0.56000000       0.60200000       0.13100000
    66  H          0.56000000       0.10200000       0.63100000
    67  H          0.94000000       0.60200000       0.86900000
    68  H          0.94000000       0.10200000       0.36900000
    69  H          0.44000000       0.39800000       0.86900000
    70  H          0.44000000       0.89800000       0.36900000
    71  H          0.06000000       0.39800000       0.13100000
    72  H          0.06000000       0.89800000       0.63100000
    73  H          0.51200000       0.93100000       0.20000000
    74  H          0.51200000       0.43100000       0.70000000
    75  H          0.98800000       0.93100000       0.80000000
    76  H          0.98800000       0.43100000       0.30000000
    77  H          0.48800000       0.06900000       0.80000000
    78  H          0.48800000       0.56900000       0.30000000
    79  H          0.01200000       0.06900000       0.20000000
    80  H          0.01200000       0.56900000       0.70000000
    81  H          0.21000000       0.81300000       0.13000000
    82  H          0.21000000       0.31300000       0.63000000
    83  H          0.29000000       0.81300000       0.87000000
    84  H          0.29000000       0.31300000       0.37000000
    85  H          0.79000000       0.18700000       0.87000000
    86  H          0.79000000       0.68700000       0.37000000
    87  H          0.71000000       0.18700000       0.13000000
    88  H          0.71000000       0.68700000       0.63000000
    89  H          0.26100000       0.47000000       0.06400000
    90  H          0.26100000       0.97000000       0.56400000
    91  H          0.23900000       0.47000000       0.93600000
    92  H          0.23900000       0.97000000       0.43600000
    93  H          0.73900000       0.53000000       0.93600000
    94  H          0.73900000       0.03000000       0.43600000
    95  H          0.76100000       0.53000000       0.06400000
    96  H          0.76100000       0.03000000       0.56400000
    97  N          0.31840000       0.09330000       0.20850000
    98  N          0.31840000       0.59330000       0.70850000
    99  N          0.18160000       0.09330000       0.79150000
   100  N          0.18160000       0.59330000       0.29150000
   101  N          0.68160000       0.90670000       0.79150000
   102  N          0.68160000       0.40670000       0.29150000
   103  N          0.81840000       0.90670000       0.20850000
   104  N          0.81840000       0.40670000       0.70850000
   105  O          0.54640000       0.24070000       0.04870000
   106  O          0.54640000       0.74070000       0.54870000
   107  O          0.95360000       0.24070000       0.95130000
   108  O          0.95360000       0.74070000       0.45130000
   109  O          0.45360000       0.75930000       0.95130000
   110  O          0.45360000       0.25930000       0.45130000
   111  O          0.04640000       0.75930000       0.04870000
   112  O          0.04640000       0.25930000       0.54870000
   113  O          0.37980000       0.15850000       0.01470000
   114  O          0.37980000       0.65850000       0.51470000
   115  O          0.12020000       0.15850000       0.98530000
   116  O          0.12020000       0.65850000       0.48530000
   117  O          0.62020000       0.84150000       0.98530000
   118  O          0.62020000       0.34150000       0.48530000
   119  O          0.87980000       0.84150000       0.01470000
   120  O          0.87980000       0.34150000       0.51470000
   121  O          0.38210000       0.17830000       0.25040000
   122  O          0.38210000       0.67830000       0.75040000
   123  O          0.11790000       0.17830000       0.74960000
   124  O          0.11790000       0.67830000       0.24960000
   125  O          0.61790000       0.82170000       0.74960000
   126  O          0.61790000       0.32170000       0.24960000
   127  O          0.88210000       0.82170000       0.25040000
   128  O          0.88210000       0.32170000       0.75040000
   129  O          0.22950000       0.17220000       0.19830000
   130  O          0.22950000       0.67220000       0.69830000
   131  O          0.27050000       0.17220000       0.80170000
   132  O          0.27050000       0.67220000       0.30170000
   133  O          0.77050000       0.82780000       0.80170000
   134  O          0.77050000       0.32780000       0.30170000
   135  O          0.72950000       0.82780000       0.19830000
   136  O          0.72950000       0.32780000       0.69830000
