data_NENVUX02
_symmetry_space_group_name_H-M    'P1'
_symmetry_Int_Tables_number       1
loop_
_symmetry_equiv_pos_site_id
_symmetry_equiv_pos_as_xyz
1 x,y,z
_cell_length_a                   12.6204
_cell_length_b                   14.0674
_cell_length_c                   18.4295
_cell_angle_alpha                90.0
_cell_angle_beta                 106.2759
_cell_angle_gamma                90.0
loop_
_atom_site_label
_atom_site_type_symbol
_atom_site_fract_x
_atom_site_fract_y
_atom_site_fract_z
     1  S          0.08383700       0.75102700       0.07023500
     2  S          0.41616300       0.25102700       0.42976500
     3  S          0.91616300       0.24897300       0.92976500
     4  S          0.58383700       0.74897300       0.57023500
     5  S          0.93542300       0.74791700       0.91503500
     6  S          0.56457700       0.24791700       0.58496500
     7  S          0.06457700       0.25208300       0.08496500
     8  S          0.43542300       0.75208300       0.41503500
     9  S          0.86969200       0.75815800       0.13560500
    10  S          0.63030800       0.25815800       0.36439500
    11  S          0.13030800       0.24184200       0.86439500
    12  S          0.36969200       0.74184200       0.63560500
    13  S          0.72267300       0.74631800       0.98030500
    14  S          0.77732700       0.24631800       0.51969500
    15  S          0.27732700       0.25368200       0.01969500
    16  S          0.22267300       0.75368200       0.48030500
    17  C          0.27073000       0.74913000       0.01992000
    18  C          0.22927000       0.24913000       0.48008000
    19  C          0.72927000       0.25087000       0.98008000
    20  C          0.77073000       0.75087000       0.51992000
    21  H          0.29740000       0.69090000       0.04840000
    22  H          0.20260000       0.19090000       0.45160000
    23  H          0.70260000       0.30910000       0.95160000
    24  H          0.79740000       0.80910000       0.54840000
    25  H          0.29820000       0.80460000       0.05170000
    26  H          0.20180000       0.30460000       0.44830000
    27  H          0.70180000       0.19540000       0.94830000
    28  H          0.79820000       0.69540000       0.55170000
    29  H          0.29760000       0.75130000       0.97490000
    30  H          0.20240000       0.25130000       0.52510000
    31  H          0.70240000       0.24870000       0.02510000
    32  H          0.79760000       0.74870000       0.47490000
    33  C          0.11103000       0.74533000       0.85270810
    34  C          0.38897000       0.24533000       0.64729190
    35  C          0.88897000       0.25467000       0.14729190
    36  C          0.61103000       0.75467000       0.35270810
    37  H          0.08950000       0.80550000       0.82580000
    38  H          0.41050000       0.30550000       0.67420000
    39  H          0.91050000       0.19450000       0.17420000
    40  H          0.58950000       0.69450000       0.32580000
    41  H          0.07360000       0.69250000       0.82100000
    42  H          0.42640000       0.19250000       0.67900000
    43  H          0.92640000       0.30750000       0.17900000
    44  H          0.57360000       0.80750000       0.32100000
    45  H          0.19110000       0.73710000       0.86400000
    46  H          0.30890000       0.23710000       0.63600000
    47  H          0.80890000       0.26290000       0.13600000
    48  H          0.69110000       0.76290000       0.36400000
    49  C          0.14653000       0.74973000      -0.00379190
    50  C          0.35347000       0.24973000       0.50379190
    51  C          0.85347000       0.25027000       0.00379190
    52  C          0.64653000       0.75027000       0.49620810
    53  C          0.07893000       0.74663000       0.92488000
    54  C          0.42107000       0.24663000       0.57512000
    55  C          0.92107000       0.25337000       0.07512000
    56  C          0.57893000       0.75337000       0.42488000
    57  C          0.94847000       0.75063000       0.01193170
    58  C          0.55153000       0.25063000       0.48806830
    59  C          0.05153000       0.24937000       0.98806830
    60  C          0.44847000       0.74937000       0.51193170
    61  C          0.85877000       0.75173000       0.03952190
    62  C          0.64123000       0.25173000       0.46047810
    63  C          0.14123000       0.24827000       0.96047810
    64  C          0.35877000       0.74827000       0.53952190
    65  C          0.72657000       0.75563000       0.12432000
    66  C          0.77343000       0.25563000       0.37568000
    67  C          0.27343000       0.24437000       0.87568000
    68  C          0.22657000       0.74437000       0.62432000
    69  C          0.65977000       0.75083000       0.05342000
    70  C          0.84023000       0.25083000       0.44658000
    71  C          0.34023000       0.24917000       0.94658000
    72  C          0.15977000       0.74917000       0.55342000
    73  C          0.69177000       0.76083000       0.19622000
    74  C          0.80823000       0.26083000       0.30378000
    75  C          0.30823000       0.23917000       0.80378000
    76  C          0.19177000       0.73917000       0.69622000
    77  H          0.75700000       0.77060000       0.23930000
    78  H          0.74300000       0.27060000       0.26070000
    79  H          0.24300000       0.22940000       0.76070000
    80  H          0.25700000       0.72940000       0.73930000
    81  H          0.65540000       0.70130000       0.20300000
    82  H          0.84460000       0.20130000       0.29700000
    83  H          0.34460000       0.29870000       0.79700000
    84  H          0.15540000       0.79870000       0.70300000
    85  H          0.64040000       0.81400000       0.19290000
    86  H          0.85960000       0.31400000       0.30710000
    87  H          0.35960000       0.18600000       0.80710000
    88  H          0.14040000       0.68600000       0.69290000
    89  C          0.53527000       0.74763000       0.03052000
    90  C          0.96473000       0.24763000       0.46948000
    91  C          0.46473000       0.25237000       0.96948000
    92  C          0.03527000       0.75237000       0.53052000
    93  H          0.50780000       0.73700000       0.97590000
    94  H         -0.00780000       0.23700000       0.52410000
    95  H          0.49220000       0.26300000       0.02410000
    96  H          0.00780000       0.76300000       0.47590000
    97  H          0.50650000       0.80800000       0.04350000
    98  H         -0.00650000       0.30800000       0.45650000
    99  H          0.49350000       0.19200000       0.95650000
   100  H          0.00650000       0.69200000       0.54350000
   101  H          0.51070000       0.69560000       0.05730000
   102  H         -0.01070000       0.19560000       0.44270000
   103  H          0.48930000       0.30440000       0.94270000
   104  H          0.01070000       0.80440000       0.55730000
   105  S          0.82047700       0.50002800       0.96835500
   106  S          0.67952300       0.00002800       0.53164500
   107  S          0.17952300       0.49997200       0.03164500
   108  S          0.32047700      -0.00002800       0.46835500
   109  S         -0.01419200       0.50716800       0.11493500
   110  S          0.51419200       0.00716800       0.38506500
   111  S          0.01419200       0.49283200       0.88506500
   112  S          0.48580800      -0.00716800       0.61493500
   113  C          0.64743000       0.49943000       0.03562000
   114  C          0.85257000      -0.00057000       0.46438000
   115  C          0.35257000       0.50057000       0.96438000
   116  C          0.14743000       0.00057000       0.53562000
   117  H          0.61060000       0.50600000       0.98140000
   118  H          0.88940000       0.00600000       0.51860000
   119  H          0.38940000       0.49400000       0.01860000
   120  H          0.11060000      -0.00600000       0.48140000
   121  H          0.62610000       0.55240000       0.06310000
   122  H          0.87390000       0.05240000       0.43690000
   123  H          0.37390000       0.44760000       0.93690000
   124  H          0.12610000       0.94760000       0.56310000
   125  H          0.62530000       0.43930000       0.05390000
   126  H          0.87470000       0.93930000       0.44610000
   127  H          0.37470000       0.56070000       0.94610000
   128  H          0.12530000       0.06070000       0.55390000
   129  C          0.82583000       0.50463000       0.19277190
   130  C          0.67417000       0.00463000       0.30722810
   131  C          0.17417000       0.49537000       0.80722810
   132  C          0.32583000      -0.00463000       0.69277190
   133  H          0.82390000       0.57070000       0.20920000
   134  H          0.67610000       0.07070000       0.29080000
   135  H          0.17610000       0.42930000       0.79080000
   136  H          0.32390000       0.92930000       0.70920000
   137  H          0.88480000       0.47030000       0.22940000
   138  H          0.61520000       0.97030000       0.27060000
   139  H          0.11520000       0.52970000       0.77060000
   140  H          0.38480000       0.02970000       0.72940000
   141  H          0.75480000       0.47410000       0.18940000
   142  H          0.74520000       0.97410000       0.31060000
   143  H          0.24520000       0.52590000       0.81060000
   144  H          0.25480000       0.02590000       0.68940000
   145  C          0.77213000       0.50033000       0.04860190
   146  C          0.72787000       0.00033000       0.45139810
   147  C          0.22787000       0.49967000       0.95139810
   148  C          0.27213000      -0.00033000       0.54860190
   149  C          0.84723000       0.50263000       0.11678180
   150  C          0.65277000       0.00263000       0.38321820
   151  C          0.15277000       0.49737000       0.88321820
   152  C          0.34723000      -0.00263000       0.61678180
   153  C          0.95783000       0.50173000       0.01797170
   154  C          0.54217000       0.00173000       0.48202830
   155  C          0.04217000       0.49827000       0.98202830
   156  C          0.45783000      -0.00173000       0.51797170
   157  S          0.67412800       0.49478800       0.56307500
   158  S          0.82587200      -0.00521200       0.93692500
   159  S          0.32587200       0.50521200       0.43692500
   160  S          0.17412800       0.00521200       0.06307500
   161  S          0.56263800       0.50208800       0.40161500
   162  S          0.93736200       0.00208800       0.09838500
   163  S          0.43736200       0.49791200       0.59838500
   164  S          0.06263800      -0.00208800       0.90161500
   165  C          0.88193000       0.50003000       0.54222000
   166  C          0.61807000       0.00003000       0.95778000
   167  C          0.11807000       0.49997000       0.45778000
   168  C          0.38193000      -0.00003000       0.04222000
   169  H          0.91220000       0.43680000       0.53770000
   170  H          0.58780000       0.93680000       0.96230000
   171  H          0.08780000       0.56320000       0.46230000
   172  H          0.41220000       0.06320000       0.03770000
   173  H          0.89480000       0.51600000       0.59570000
   174  H          0.60520000       0.01600000       0.90430000
   175  H          0.10520000       0.48400000       0.40430000
   176  H          0.39480000       0.98400000       0.09570000
   177  H          0.91830000       0.54720000       0.51820000
   178  H          0.58170000       0.04720000       0.98180000
   179  H          0.08170000       0.45280000       0.48180000
   180  H          0.41830000       0.95280000       0.01820000
   181  C          0.76543000       0.50963000       0.36742000
   182  C          0.73457000       0.00963000       0.13258000
   183  C          0.23457000       0.49037000       0.63258000
   184  C          0.26543000      -0.00963000       0.86742000
   185  H          0.76880000       0.57630000       0.35290000
   186  H          0.73120000       0.07630000       0.14710000
   187  H          0.23120000       0.42370000       0.64710000
   188  H          0.26880000       0.92370000       0.85290000
   189  H          0.72420000       0.47270000       0.32340000
   190  H          0.77580000       0.97270000       0.17660000
   191  H          0.27580000       0.52730000       0.67660000
   192  H          0.22420000       0.02730000       0.82340000
   193  H          0.84040000       0.48410000       0.38610000
   194  H          0.65960000       0.98410000       0.11390000
   195  H          0.15960000       0.51590000       0.61390000
   196  H          0.34040000       0.01590000       0.88610000
   197  C          0.75923000       0.50023000       0.50347190
   198  C          0.74077000       0.00023000      -0.00347190
   199  C          0.24077000       0.49977000       0.49652810
   200  C          0.25923000      -0.00023000       0.00347190
   201  C          0.70853000       0.50283000       0.42838190
   202  C          0.79147000       0.00283000       0.07161810
   203  C          0.29147000       0.49717000       0.57161810
   204  C          0.20853000      -0.00283000       0.92838190
   205  C          0.54993000       0.49923000       0.49196170
   206  C          0.95007000      -0.00077000       0.00803830
   207  C          0.45007000       0.50077000       0.50803830
   208  C          0.04993000       0.00077000       0.99196170
   209  O          0.72552000       0.47541190       0.76141140
   210  O          0.77448000       0.97541190       0.73858860
   211  O          0.27448000       0.52458810       0.23858860
   212  O          0.22552000       0.02458810       0.26141140
   213  H          0.80230000       0.48830000       0.74221900
   214  H          0.69770000       0.98830000       0.75778100
   215  H          0.19770000       0.51170000       0.25778100
   216  H          0.30230000       0.01170000       0.24221900
   217  O          0.44122000       0.63462000       0.83293160
   218  O          0.05878000       0.13462000       0.66706840
   219  O          0.55878000       0.36538000       0.16706840
   220  O          0.94122000       0.86538000       0.33293160
   221  O          0.58563000       0.42232000       0.86538160
   222  O          0.91437000       0.92232000       0.63461840
   223  O          0.41437000       0.57768000       0.13461840
   224  O          0.08563000       0.07768000       0.36538160
   225  O          0.44913000       0.44362000       0.76530160
   226  O          0.05087000       0.94362000       0.73469840
   227  O          0.55087000       0.55638000       0.23469840
   228  O          0.94913000       0.05638000       0.26530160
   229  O          0.45722000       0.82502000       0.83871170
   230  O          0.04278000       0.32502000       0.66128830
   231  O          0.54278000       0.17498000       0.16128830
   232  O          0.95722000       0.67498000       0.33871170
   233  O          0.57082000       0.89412000       0.78872160
   234  O          0.92918000       0.39412000       0.71127840
   235  O          0.42918000       0.10588000       0.21127840
   236  O          0.07082000       0.60588000       0.28872160
   237  O          0.85122000       0.73602000       0.71953150
   238  O          0.64878000       0.23602000       0.78046850
   239  O          0.14878000       0.26398000       0.28046850
   240  O          0.35122000       0.76398000       0.21953150
   241  O          0.86352000       0.58032000       0.71919140
   242  O          0.63648000       0.08032000       0.78080860
   243  O          0.13648000       0.41968000       0.28080860
   244  O          0.36352000       0.91968000       0.21919140
   245  N          0.53793000       0.46812000       0.80914170
   246  N          0.96207000       0.96812000       0.69085830
   247  N          0.46207000       0.53188000       0.19085830
   248  N          0.03793000       0.03188000       0.30914170
   249  N          0.53173000       0.82113000       0.80771180
   250  N          0.96827000       0.32113000       0.69228820
   251  N          0.46827000       0.17887000       0.19228820
   252  N          0.03173000       0.67887000       0.30771180
   253  N          0.81493000       0.65613000       0.73055180
   254  N          0.68507000       0.15613000       0.76944820
   255  N          0.18507000       0.34387000       0.26944820
   256  N          0.31493000       0.84387000       0.23055180
   257  C          0.52533000       0.64243000       0.80962000
   258  C          0.97467000       0.14243000       0.69038000
   259  C          0.47467000       0.35757000       0.19038000
   260  C          0.02533000       0.85757000       0.30962000
   261  C          0.57763000       0.73053000       0.79642000
   262  C          0.92237000       0.23053000       0.70358000
   263  C          0.42237000       0.26947000       0.20358000
   264  C          0.07763000       0.76947000       0.29642000
   265  C          0.66873000       0.73303000       0.77132000
   266  C          0.83127000       0.23303000       0.72868000
   267  C          0.33127000       0.26697000       0.22868000
   268  C          0.16873000       0.76697000       0.27132000
   269  C          0.72103000       0.64823000       0.75792000
   270  C          0.77897000       0.14823000       0.74208000
   271  C          0.27897000       0.35177000       0.24208000
   272  C          0.22103000       0.85177000       0.25792000
   273  C          0.67883000       0.55633000       0.77272000
   274  C          0.82117000       0.05633000       0.72728000
   275  C          0.32117000       0.44367000       0.22728000
   276  C          0.17883000       0.94367000       0.27272000
   277  C          0.58463000       0.56053000       0.79522000
   278  C          0.91537000       0.06053000       0.70478000
   279  C          0.41537000       0.43947000       0.20478000
   280  C          0.08463000       0.93947000       0.29522000
   281  H          0.69820000       0.81020000       0.76051500
   282  H          0.80180000       0.31020000       0.73948500
   283  H          0.30180000       0.18980000       0.23948500
   284  H          0.19820000       0.68980000       0.26051500
