data_NENVUX03
_symmetry_space_group_name_H-M    'P1'
_symmetry_Int_Tables_number       1
loop_
_symmetry_equiv_pos_site_id
_symmetry_equiv_pos_as_xyz
1 x,y,z
_cell_length_a                   12.6346
_cell_length_b                   14.3437
_cell_length_c                   18.5509
_cell_angle_alpha                90.0
_cell_angle_beta                 105.954
_cell_angle_gamma                90.0
loop_
_atom_site_label
_atom_site_type_symbol
_atom_site_fract_x
_atom_site_fract_y
_atom_site_fract_z
     1  S          0.08248120       0.75202000       0.06937100
     2  S          0.41751880       0.25202000       0.43062900
     3  S          0.91751880       0.24798000       0.93062900
     4  S          0.58248120       0.74798000       0.56937100
     5  S          0.93510880       0.74752000       0.91609100
     6  S          0.56489120       0.24752000       0.58390900
     7  S          0.06489120       0.25248000       0.08390900
     8  S          0.43510880       0.75248000       0.41609100
     9  S          0.87010870       0.76072000       0.13551100
    10  S          0.62989130       0.26072000       0.36448900
    11  S          0.12989130       0.23928000       0.86448900
    12  S          0.37010870       0.73928000       0.63551100
    13  S          0.72317880       0.74762000       0.98220900
    14  S          0.77682120       0.24762000       0.51779100
    15  S          0.27682120       0.25238000       0.01779100
    16  S          0.22317880       0.75238000       0.48220900
    17  C          0.26705000       0.74717000       0.01945000
    18  C          0.23295000       0.24717000       0.48055000
    19  C          0.73295000       0.25283000       0.98055000
    20  C          0.76705000       0.75283000       0.51945000
    21  H          0.29220000       0.73030000       0.07140000
    22  H          0.20780000       0.23030000       0.42860000
    23  H          0.70780000       0.26970000       0.92860000
    24  H          0.79220000       0.76970000       0.57140000
    25  H          0.29410000       0.80800000       0.01240000
    26  H          0.20590000       0.30800000       0.48760000
    27  H          0.70590000       0.19200000       0.98760000
    28  H          0.79410000       0.69200000       0.51240000
    29  H          0.29370000       0.70260000       0.99000000
    30  H          0.20630000       0.20260000       0.51000000
    31  H          0.70630000       0.29740000       0.01000000
    32  H          0.79370000       0.79740000       0.49000000
    33  C          0.11026000       0.73996000       0.85536000
    34  C          0.38974000       0.23996000       0.64464000
    35  C          0.88974000       0.26004000       0.14464000
    36  C          0.61026000       0.76004000       0.35536000
    37  H          0.11870000       0.80180000       0.83810000
    38  H          0.38130000       0.30180000       0.66190000
    39  H          0.88130000       0.19820000       0.16190000
    40  H          0.61870000       0.69820000       0.33810000
    41  H          0.05510000       0.70730000       0.81790000
    42  H          0.44490000       0.20730000       0.68210000
    43  H          0.94490000       0.29270000       0.18210000
    44  H          0.55510000       0.79270000       0.31790000
    45  H          0.17890000       0.70720000       0.86490000
    46  H          0.32110000       0.20720000       0.63510000
    47  H          0.82110000       0.29280000       0.13510000
    48  H          0.67890000       0.79280000       0.36490000
    49  C          0.14335000       0.74796000      -0.00494000
    50  C          0.35665000       0.24796000       0.50494000
    51  C          0.85665000       0.25204000       0.00494000
    52  C          0.64335000       0.75204000       0.49506000
    53  C          0.07615000       0.74525000       0.92506000
    54  C          0.42385000       0.24525000       0.57494000
    55  C          0.92385000       0.25475000       0.07494000
    56  C          0.57615000       0.75475000       0.42506000
    57  C          0.94766000       0.74955000       0.01193000
    58  C          0.55234000       0.24955000       0.48807000
    59  C          0.05234000       0.25045000       0.98807000
    60  C          0.44766000       0.75045000       0.51193000
    61  C          0.85865000       0.75336000       0.03944000
    62  C          0.64135000       0.25336000       0.46056000
    63  C          0.14135000       0.24664000       0.96056000
    64  C          0.35865000       0.74664000       0.53944000
    65  C          0.72855000       0.75886000       0.12584000
    66  C          0.77145000       0.25886000       0.37416000
    67  C          0.27145000       0.24114000       0.87416000
    68  C          0.22855000       0.74114000       0.62584000
    69  C          0.66105000       0.75305000       0.05764000
    70  C          0.83895000       0.25305000       0.44236000
    71  C          0.33895000       0.24695000       0.94236000
    72  C          0.16105000       0.74695000       0.55764000
    73  C          0.69374000       0.75886000       0.19664000
    74  C          0.80626000       0.25886000       0.30336000
    75  C          0.30626000       0.24114000       0.80336000
    76  C          0.19374000       0.74114000       0.69664000
    77  H          0.72280000       0.81300000       0.22560000
    78  H          0.77720000       0.31300000       0.27440000
    79  H          0.27720000       0.18700000       0.77440000
    80  H          0.22280000       0.68700000       0.72560000
    81  H          0.72130000       0.70370000       0.22500000
    82  H          0.77870000       0.20370000       0.27500000
    83  H          0.27870000       0.29630000       0.77500000
    84  H          0.22130000       0.79630000       0.72500000
    85  H          0.61490000       0.75950000       0.18450000
    86  H          0.88510000       0.25950000       0.31550000
    87  H          0.38510000       0.24050000       0.81550000
    88  H          0.11490000       0.74050000       0.68450000
    89  C          0.53755000       0.74776000       0.03354000
    90  C          0.96245000       0.24776000       0.46646000
    91  C          0.46245000       0.25224000       0.96646000
    92  C          0.03755000       0.75224000       0.53354000
    93  H          0.51340000       0.72510000       0.98290000
    94  H         -0.01340000       0.22510000       0.51710000
    95  H          0.48660000       0.27490000       0.01710000
    96  H          0.01340000       0.77490000       0.48290000
    97  H          0.50750000       0.80870000       0.03610000
    98  H         -0.00750000       0.30870000       0.46390000
    99  H          0.49250000       0.19130000       0.96390000
   100  H          0.00750000       0.69130000       0.53610000
   101  H          0.51310000       0.70600000       0.06600000
   102  H         -0.01310000       0.20600000       0.43400000
   103  H          0.48690000       0.29400000       0.93400000
   104  H          0.01310000       0.79400000       0.56600000
   105  S          0.82133120       0.50082000       0.97157900
   106  S          0.67866880       0.00082000       0.52842100
   107  S          0.17866880       0.49918000       0.02842100
   108  S          0.32133120      -0.00082000       0.47157900
   109  S         -0.01223860       0.50832000       0.11418900
   110  S          0.51223860       0.00832000       0.38581100
   111  S          0.01223860       0.49168000       0.88581100
   112  S          0.48776140      -0.00832000       0.61418900
   113  C          0.65265000       0.50166000       0.04154000
   114  C          0.84735000       0.00166000       0.45846000
   115  C          0.34735000       0.49834000       0.95846000
   116  C          0.15265000      -0.00166000       0.54154000
   117  H          0.62680000       0.43840000       0.03970000
   118  H          0.87320000       0.93840000       0.46030000
   119  H          0.37320000       0.56160000       0.96030000
   120  H          0.12680000       0.06160000       0.53970000
   121  H          0.61590000       0.53290000      -0.00430000
   122  H          0.88410000       0.03290000       0.50430000
   123  H          0.38410000       0.46710000       0.00430000
   124  H          0.11590000       0.96710000       0.49570000
   125  H          0.63700000       0.53320000       0.08310000
   126  H          0.86300000       0.03320000       0.41690000
   127  H          0.36300000       0.46680000       0.91690000
   128  H          0.13700000       0.96680000       0.58310000
   129  C          0.83326000       0.50777000       0.19314000
   130  C          0.66674000       0.00777000       0.30686000
   131  C          0.16674000       0.49223000       0.80686000
   132  C          0.33326000      -0.00777000       0.69314000
   133  H          0.90230000       0.51330000       0.23070000
   134  H          0.59770000       0.01330000       0.26930000
   135  H          0.09770000       0.48670000       0.76930000
   136  H          0.40230000       0.98670000       0.73070000
   137  H          0.79770000       0.45080000       0.20060000
   138  H          0.70230000       0.95080000       0.29940000
   139  H          0.20230000       0.54920000       0.79940000
   140  H          0.29770000       0.04920000       0.70060000
   141  H          0.78700000       0.55970000       0.19660000
   142  H          0.71300000       0.05970000       0.30340000
   143  H          0.21300000       0.44030000       0.80340000
   144  H          0.28700000       0.94030000       0.69660000
   145  C          0.77485000       0.50185000       0.05124000
   146  C          0.72515000       0.00185000       0.44876000
   147  C          0.22515000       0.49815000       0.94876000
   148  C          0.27485000      -0.00185000       0.55124000
   149  C          0.85265000       0.50676000       0.11754000
   150  C          0.64735000       0.00676000       0.38246000
   151  C          0.14735000       0.49324000       0.88246000
   152  C          0.35265000      -0.00676000       0.61754000
   153  C          0.96004000       0.50187000       0.01853000
   154  C          0.53996000       0.00187000       0.48147000
   155  C          0.03996000       0.49813000       0.98147000
   156  C          0.46004000      -0.00187000       0.51853000
   157  S          0.67251130       0.49422000       0.56286900
   158  S          0.82748870      -0.00578000       0.93713100
   159  S          0.32748870       0.50578000       0.43713100
   160  S          0.17251130       0.00578000       0.06286900
   161  S          0.56495140       0.50342000       0.40348100
   162  S          0.93504860       0.00342000       0.09651900
   163  S          0.43504860       0.49658000       0.59651900
   164  S          0.06495140      -0.00342000       0.90348100
   165  C          0.87925000       0.49946000       0.54014000
   166  C          0.62075000      -0.00054000       0.95986000
   167  C          0.12075000       0.50054000       0.45986000
   168  C          0.37925000       0.00054000       0.04014000
   169  H          0.90270000       0.43690000       0.55460000
   170  H          0.59730000       0.93690000       0.94540000
   171  H          0.09730000       0.56310000       0.44540000
   172  H          0.40270000       0.06310000       0.05460000
   173  H          0.89560000       0.53860000       0.58380000
   174  H          0.60440000       0.03860000       0.91620000
   175  H          0.10440000       0.46140000       0.41620000
   176  H          0.39560000       0.96140000       0.08380000
   177  H          0.91720000       0.52230000       0.50550000
   178  H          0.58280000       0.02230000      -0.00550000
   179  H          0.08280000       0.47770000       0.49450000
   180  H          0.41720000       0.97770000       0.00550000
   181  C          0.76736000       0.50977000       0.37094000
   182  C          0.73264000       0.00977000       0.12906000
   183  C          0.23264000       0.49023000       0.62906000
   184  C          0.26736000       0.99023000       0.87094000
   185  H          0.75230000       0.56800000       0.34460000
   186  H          0.74770000       0.06800000       0.15540000
   187  H          0.24770000       0.43200000       0.65540000
   188  H          0.25230000       0.93200000       0.84460000
   189  H          0.74220000       0.45940000       0.33630000
   190  H          0.75780000       0.95940000       0.16370000
   191  H          0.25780000       0.54060000       0.66370000
   192  H          0.24220000       0.04060000       0.83630000
   193  H          0.84510000       0.50380000       0.39330000
   194  H          0.65490000       0.00380000       0.10670000
   195  H          0.15490000       0.49620000       0.60670000
   196  H          0.34510000      -0.00380000       0.89330000
   197  C          0.75885000       0.50026000       0.50394000
   198  C          0.74115000       0.00026000      -0.00394000
   199  C          0.24115000       0.49974000       0.49606000
   200  C          0.25885000      -0.00026000       0.00394000
   201  C          0.70865000       0.50676000       0.43074000
   202  C          0.79135000       0.00676000       0.06926000
   203  C          0.29135000       0.49324000       0.56926000
   204  C          0.20865000      -0.00676000       0.93074000
   205  C          0.55014000       0.49786000       0.49173000
   206  C          0.94986000      -0.00214000       0.00827000
   207  C          0.44986000       0.50214000       0.50827000
   208  C          0.05014000       0.00214000       0.99173000
   209  C          0.26724000      -0.00963000       0.87086000
   210  O          0.72165000       0.47024000       0.76273000
   211  O          0.77835000       0.97024000       0.73727000
   212  O          0.27835000       0.52976000       0.23727000
   213  O          0.22165000       0.02976000       0.26273000
   214  H          0.77440000       0.48450000       0.74330000
   215  H          0.72560000       0.98450000       0.75670000
   216  H          0.22560000       0.51550000       0.25670000
   217  H          0.27440000       0.01550000       0.24330000
   218  O          0.44324000       0.62794000       0.83363000
   219  O          0.05676000       0.12794000       0.66637000
   220  O          0.55676000       0.37206000       0.16637000
   221  O          0.94324000       0.87206000       0.33363000
   222  O          0.57915000       0.42215000       0.86644000
   223  O          0.92085000       0.92215000       0.63356000
   224  O          0.42085000       0.57785000       0.13356000
   225  O          0.07915000       0.07785000       0.36644000
   226  O          0.45435000       0.43904000       0.76743000
   227  O          0.04565000       0.93904000       0.73257000
   228  O          0.54565000       0.56096000       0.23257000
   229  O          0.95435000       0.06096000       0.26743000
   230  O          0.46085000       0.81554000       0.83734000
   231  O          0.03915000       0.31554000       0.66266000
   232  O          0.53915000       0.18446000       0.16266000
   233  O          0.96085000       0.68446000       0.33734000
   234  O          0.57765000       0.88175000       0.78944000
   235  O          0.92235000       0.38175000       0.71056000
   236  O          0.42235000       0.11825000       0.21056000
   237  O          0.07765000       0.61825000       0.28944000
   238  O          0.85005000       0.72355000       0.71653000
   239  O          0.64995000       0.22355000       0.78347000
   240  O          0.14995000       0.27645000       0.28347000
   241  O          0.35005000       0.77645000       0.21653000
   242  O          0.86074000       0.57045000       0.71953000
   243  O          0.63926000       0.07045000       0.78047000
   244  O          0.13926000       0.42955000       0.28047000
   245  O          0.36074000       0.92955000       0.21953000
   246  N          0.53666000       0.46426000       0.80974000
   247  N          0.96334000       0.96426000       0.69026000
   248  N          0.46334000       0.53574000       0.19026000
   249  N          0.03666000       0.03574000       0.30974000
   250  N          0.53596000       0.81036000       0.80844000
   251  N          0.96404000       0.31036000       0.69156000
   252  N          0.46404000       0.18964000       0.19156000
   253  N          0.03596000       0.68964000       0.30844000
   254  N          0.81455000       0.64687000       0.72933000
   255  N          0.68545000       0.14687000       0.77067000
   256  N          0.18545000       0.35313000       0.27067000
   257  N          0.31455000       0.85313000       0.22933000
   258  C          0.52766000       0.63447000       0.81054000
   259  C          0.97234000       0.13447000       0.68946000
   260  C          0.47234000       0.36553000       0.18946000
   261  C          0.02766000       0.86553000       0.31054000
   262  C          0.58027000       0.71956000       0.79844000
   263  C          0.91973000       0.21956000       0.70156000
   264  C          0.41973000       0.28044000       0.20156000
   265  C          0.08027000       0.78044000       0.29844000
   266  C          0.67347000       0.72127000       0.77174000
   267  C          0.82653000       0.22127000       0.72826000
   268  C          0.32653000       0.27873000       0.22826000
   269  C          0.17347000       0.77873000       0.27174000
   270  C          0.72016000       0.63737000       0.75873000
   271  C          0.77984000       0.13737000       0.74127000
   272  C          0.27984000       0.36263000       0.24127000
   273  C          0.22016000       0.86263000       0.25873000
   274  C          0.67596000       0.55047000       0.77024000
   275  C          0.82404000       0.05047000       0.72976000
   276  C          0.32404000       0.44953000       0.22976000
   277  C          0.17596000       0.94953000       0.27024000
   278  C          0.58496000       0.55387000       0.79514000
   279  C          0.91504000       0.05387000       0.70486000
   280  C          0.41504000       0.44613000       0.20486000
   281  C          0.08496000       0.94613000       0.29514000
   282  H          0.69240000       0.79140000       0.76230000
   283  H          0.80760000       0.29140000       0.73770000
   284  H          0.30760000       0.20860000       0.23770000
   285  H          0.19240000       0.70860000       0.26230000
