data_NEQDOG03
_symmetry_space_group_name_H-M    'P1'
_symmetry_Int_Tables_number       1
loop_
_symmetry_equiv_pos_site_id
_symmetry_equiv_pos_as_xyz
1 x,y,z
_cell_length_a                   37.7832
_cell_length_b                   7.43144
_cell_length_c                   6.86063
_cell_angle_alpha                90.0
_cell_angle_beta                 95.2055
_cell_angle_gamma                90.0
loop_
_atom_site_label
_atom_site_type_symbol
_atom_site_fract_x
_atom_site_fract_y
_atom_site_fract_z
     1  F          0.11520600       0.95047000       0.62424000
     2  F          0.88479400       0.95047000       0.87576000
     3  F          0.61520600       0.45047000       0.62424000
     4  F          0.38479400       0.45047000       0.87576000
     5  F          0.88479400       0.04953000       0.37576000
     6  F          0.11520600       0.04953000       0.12424000
     7  F          0.38479400       0.54953000       0.37576000
     8  F          0.61520600       0.54953000       0.12424000
     9  F          0.04470600       0.97376000       0.53424000
    10  F          0.95529400       0.97376000       0.96576000
    11  F          0.54470600       0.47376000       0.53424000
    12  F          0.45529400       0.47376000       0.96576000
    13  F          0.95529400       0.02624000       0.46576000
    14  F          0.04470600       0.02624000       0.03424000
    15  F          0.45529400       0.52624000       0.46576000
    16  F          0.54470600       0.52624000       0.03424000
    17  F          0.01119600       0.29454000       0.56094000
    18  F          0.98880400       0.29454000       0.93906000
    19  F          0.51119600       0.79454000       0.56094000
    20  F          0.48880400       0.79454000       0.93906000
    21  F          0.98880400       0.70546000       0.43906000
    22  F          0.01119600       0.70546000       0.06094000
    23  F          0.48880400       0.20546000       0.43906000
    24  F          0.51119600       0.20546000       0.06094000
    25  F          0.04875600       0.59223000       0.68464000
    26  F          0.95124400       0.59223000       0.81536000
    27  F          0.54875600       0.09223000       0.68464000
    28  F          0.45124400       0.09223000       0.81536000
    29  F          0.95124400       0.40777000       0.31536000
    30  F          0.04875600       0.40777000       0.18464000
    31  F          0.45124400       0.90777000       0.31536000
    32  F          0.54875600       0.90777000       0.18464000
    33  F          0.11925600       0.57253000       0.77193000
    34  F          0.88074400       0.57253000       0.72807000
    35  F          0.61925600       0.07253000       0.77193000
    36  F          0.38074400       0.07253000       0.72807000
    37  F          0.88074400       0.42747000       0.22807000
    38  F          0.11925600       0.42747000       0.27193000
    39  F          0.38074400       0.92747000       0.22807000
    40  F          0.61925600       0.92747000       0.27193000
    41  C          0.09917100       0.11285000       0.63786000
    42  C          0.90082900       0.11285000       0.86214000
    43  C          0.59917100       0.61285000       0.63786000
    44  C          0.40082900       0.61285000       0.86214000
    45  C          0.90082900       0.88715000       0.36214000
    46  C          0.09917100       0.88715000       0.13786000
    47  C          0.40082900       0.38715000       0.36214000
    48  C          0.59917100       0.38715000       0.13786000
    49  C          0.06348110       0.12205000       0.59286000
    50  C          0.93651890       0.12205000       0.90714000
    51  C          0.56348110       0.62205000       0.59286000
    52  C          0.43651890       0.62205000       0.90714000
    53  C          0.93651890       0.87795000       0.40714000
    54  C          0.06348110       0.87795000       0.09286000
    55  C          0.43651890       0.37795000       0.40714000
    56  C          0.56348110       0.37795000       0.09286000
    57  C          0.04564100       0.28246000       0.60706000
    58  C          0.95435900       0.28246000       0.89294000
    59  C          0.54564100       0.78246000       0.60706000
    60  C          0.45435900       0.78246000       0.89294000
    61  C          0.95435900       0.71754000       0.39294000
    62  C          0.04564100       0.71754000       0.10706000
    63  C          0.45435900       0.21754000       0.39294000
    64  C          0.54564100       0.21754000       0.10706000
    65  C          0.06524110       0.43376000       0.67266000
    66  C          0.93475890       0.43376000       0.82734000
    67  C          0.56524110       0.93376000       0.67266000
    68  C          0.43475890       0.93376000       0.82734000
    69  C          0.93475890       0.56624000       0.32734000
    70  C          0.06524110       0.56624000       0.17266000
    71  C          0.43475890       0.06624000       0.32734000
    72  C          0.56524110       0.06624000       0.17266000
    73  C          0.10120100       0.42005000       0.71645000
    74  C          0.89879900       0.42005000       0.78355000
    75  C          0.60120100       0.92005000       0.71645000
    76  C          0.39879900       0.92005000       0.78355000
    77  C          0.89879900       0.57995000       0.28355000
    78  C          0.10120100       0.57995000       0.21645000
    79  C          0.39879900       0.07995000       0.28355000
    80  C          0.60120100       0.07995000       0.21645000
    81  C          0.11996100       0.26095000       0.69985000
    82  C          0.88003900       0.26095000       0.80015000
    83  C          0.61996100       0.76095000       0.69985000
    84  C          0.38003900       0.76095000       0.80015000
    85  C          0.88003900       0.73905000       0.30015000
    86  C          0.11996100       0.73905000       0.19985000
    87  C          0.38003900       0.23905000       0.30015000
    88  C          0.61996100       0.23905000       0.19985000
    89  C          0.15902100       0.24755000       0.74055000
    90  C          0.84097900       0.24755000       0.75945000
    91  C          0.65902100       0.74755000       0.74055000
    92  C          0.34097900       0.74755000       0.75945000
    93  C          0.84097900       0.75245000       0.25945000
    94  C          0.15902100       0.75245000       0.24055000
    95  C          0.34097900       0.25245000       0.25945000
    96  C          0.65902100       0.25245000       0.24055000
    97  C          0.17583900       0.29864000       0.91955000
    98  C          0.82416100       0.29864000       0.58045000
    99  C          0.67583900       0.79864000       0.91955000
   100  C          0.32416100       0.79864000       0.58045000
   101  C          0.82416100       0.70136000       0.08045000
   102  C          0.17583900       0.70136000       0.41955000
   103  C          0.32416100       0.20136000       0.08045000
   104  C          0.67583900       0.20136000       0.41955000
   105  H          0.16251200       0.34646700       0.01455400
   106  H          0.83748800       0.34646700       0.48544600
   107  H          0.66251200       0.84646700       0.01455400
   108  H          0.33748800       0.84646700       0.48544600
   109  H          0.83748800       0.65353300      -0.01455400
   110  H          0.16251200       0.65353300       0.51455400
   111  H          0.33748800       0.15353300      -0.01455400
   112  H          0.66251200       0.15353300       0.51455400
   113  C          0.21283900       0.27904000       0.95945000
   114  C          0.78716100       0.27904000       0.54055000
   115  C          0.71283900       0.77904000       0.95945000
   116  C          0.28716100       0.77904000       0.54055000
   117  C          0.78716100       0.72096000       0.04055000
   118  C          0.21283900       0.72096000       0.45945000
   119  C          0.28716100       0.22096000       0.04055000
   120  C          0.71283900       0.22096000       0.45945000
   121  C          0.23358900       0.20214000       0.81455000
   122  C          0.76641100       0.20214000       0.68545000
   123  C          0.73358900       0.70214000       0.81455000
   124  C          0.26641100       0.70214000       0.68545000
   125  C          0.76641100       0.79786000       0.18545000
   126  C          0.23358900       0.79786000       0.31455000
   127  C          0.26641100       0.29786000       0.18545000
   128  C          0.73358900       0.29786000       0.31455000
   129  C          0.21510900       0.15765000       0.62875000
   130  C          0.78489100       0.15765000       0.87125000
   131  C          0.71510900       0.65765000       0.62875000
   132  C          0.28489100       0.65765000       0.87125000
   133  C          0.78489100       0.84235000       0.37125000
   134  C          0.21510900       0.84235000       0.12875000
   135  C          0.28489100       0.34235000       0.37125000
   136  C          0.71510900       0.34235000       0.12875000
   137  H          0.22800400       0.11505200       0.52905300
   138  H          0.77199600       0.11505200       0.97094700
   139  H          0.72800400       0.61505200       0.52905300
   140  H          0.27199600       0.61505200       0.97094700
   141  H          0.77199600       0.88494800       0.47094700
   142  H          0.22800400       0.88494800       0.02905300
   143  H          0.27199600       0.38494800       0.47094700
   144  H          0.72800400       0.38494800       0.02905300
   145  C          0.17961100       0.17585000       0.59455000
   146  C          0.82038900       0.17585000       0.90545000
   147  C          0.67961100       0.67585000       0.59455000
   148  C          0.32038900       0.67585000       0.90545000
   149  C          0.82038900       0.82415000       0.40545000
   150  C          0.17961100       0.82415000       0.09455000
   151  C          0.32038900       0.32415000       0.40545000
   152  C          0.67961100       0.32415000       0.09455000
   153  H          0.16839000       0.14115600       0.47404200
   154  H          0.83161000       0.14115600       0.02595800
   155  H          0.66839000       0.64115600       0.47404200
   156  H          0.33161000       0.64115600       0.02595800
   157  H          0.83161000       0.85884400       0.52595800
   158  H          0.16839000       0.85884400       0.97404200
   159  H          0.33161000       0.35884400       0.52595800
   160  H          0.66839000       0.35884400       0.97404200
   161  C          0.23030900       0.32354000       0.14425000
   162  C          0.76969100       0.32354000       0.35575000
   163  C          0.73030900       0.82354000       0.14425000
   164  C          0.26969100       0.82354000       0.35575000
   165  C          0.76969100       0.67646000       0.85575000
   166  C          0.23030900       0.67646000       0.64425000
   167  C          0.26969100       0.17646000       0.85575000
   168  C          0.73030900       0.17646000       0.64425000
   169  H          0.21728300       0.36300500       0.24469500
   170  H          0.78271700       0.36300500       0.25530500
   171  H          0.71728300       0.86300500       0.24469500
   172  H          0.28271700       0.86300500       0.25530500
   173  H          0.78271700       0.63699500       0.75530500
   174  H          0.21728300       0.63699500       0.74469500
   175  H          0.28271700       0.13699500       0.75530500
   176  H          0.71728300       0.13699500       0.74469500
