data_NEQDOG
_symmetry_space_group_name_H-M    'P1'
_symmetry_Int_Tables_number       1
loop_
_symmetry_equiv_pos_site_id
_symmetry_equiv_pos_as_xyz
1 x,y,z
_cell_length_a                   22.5725
_cell_length_b                   6.585915
_cell_length_c                   13.3043
_cell_angle_alpha                90.0
_cell_angle_beta                 106.2483
_cell_angle_gamma                90.0
loop_
_atom_site_label
_atom_site_type_symbol
_atom_site_fract_x
_atom_site_fract_y
_atom_site_fract_z
     1  F          0.10415500       0.62880830       0.16546900
     2  F          0.89584500       0.62880830       0.33453100
     3  F          0.60415500       0.12880830       0.16546900
     4  F          0.39584500       0.12880830       0.33453100
     5  F          0.89584500       0.37119170       0.83453100
     6  F          0.10415500       0.37119170       0.66546900
     7  F          0.39584500       0.87119170       0.83453100
     8  F          0.60415500       0.87119170       0.66546900
     9  F          0.16779600       0.68343820       0.02560900
    10  F          0.83220400       0.68343820       0.47439100
    11  F          0.66779600       0.18343820       0.02560900
    12  F          0.33220400       0.18343820       0.47439100
    13  F          0.83220400       0.31656180       0.97439100
    14  F          0.16779600       0.31656180       0.52560900
    15  F          0.33220400       0.81656180       0.97439100
    16  F          0.66779600       0.81656180       0.52560900
    17  F          0.22964500       0.03646190       0.02134900
    18  F          0.77035500       0.03646190       0.47865100
    19  F          0.72964500       0.53646190       0.02134900
    20  F          0.27035500       0.53646190       0.47865100
    21  F          0.77035500       0.96353810       0.97865100
    22  F          0.22964500       0.96353810       0.52134900
    23  F          0.27035500       0.46353810       0.97865100
    24  F          0.72964500       0.46353810       0.52134900
    25  F          0.22700500       0.33490170       0.16122900
    26  F          0.77299500       0.33490170       0.33877100
    27  F          0.72700500       0.83490170       0.16122900
    28  F          0.27299500       0.83490170       0.33877100
    29  F          0.77299500       0.66509830       0.83877100
    30  F          0.22700500       0.66509830       0.66122900
    31  F          0.27299500       0.16509830       0.83877100
    32  F          0.72700500       0.16509830       0.66122900
    33  F          0.16813500       0.27987170       0.30690900
    34  F          0.83186500       0.27987170       0.19309100
    35  F          0.66813500       0.77987170       0.30690900
    36  F          0.33186500       0.77987170       0.19309100
    37  F          0.83186500       0.72012830       0.69309100
    38  F          0.16813500       0.72012830       0.80690900
    39  F          0.33186500       0.22012830       0.69309100
    40  F          0.66813500       0.22012830       0.80690900
    41  C          0.06374900       0.06723000       0.34657150
    42  C          0.93625100       0.06723000       0.15342850
    43  C          0.56374900       0.56723000       0.34657150
    44  C          0.43625100       0.56723000       0.15342850
    45  C          0.93625100       0.93277000       0.65342850
    46  C          0.06374900       0.93277000       0.84657150
    47  C          0.43625100       0.43277000       0.65342850
    48  C          0.56374900       0.43277000       0.84657150
    49  C          0.09996900       0.91887000       0.32288150
    50  C          0.90003100       0.91887000       0.17711850
    51  C          0.59996900       0.41887000       0.32288150
    52  C          0.40003100       0.41887000       0.17711850
    53  C          0.90003100       0.08113000       0.67711850
    54  C          0.09996900       0.08113000       0.82288150
    55  C          0.40003100       0.58113000       0.67711850
    56  C          0.59996900       0.58113000       0.82288150
    57  C          0.10635900       0.72897000       0.37761160
    58  C          0.89364100       0.72897000       0.12238840
    59  C          0.60635900       0.22897000       0.37761160
    60  C          0.39364100       0.22897000       0.12238840
    61  C          0.89364100       0.27103000       0.62238840
    62  C          0.10635900       0.27103000       0.87761160
    63  C          0.39364100       0.77103000       0.62238840
    64  C          0.60635900       0.77103000       0.87761160
    65  C          0.07639900       0.69477000       0.45130160
    66  C          0.92360100       0.69477000       0.04869840
    67  C          0.57639900       0.19477000       0.45130160
    68  C          0.42360100       0.19477000       0.04869840
    69  C          0.92360100       0.30523000       0.54869840
    70  C          0.07639900       0.30523000       0.95130160
    71  C          0.42360100       0.80523000       0.54869840
    72  C          0.57639900       0.80523000       0.95130160
    73  C          0.03751900       0.84527000       0.47686150
    74  C          0.96248100       0.84527000       0.02313850
    75  C          0.53751900       0.34527000       0.47686150
    76  C          0.46248100       0.34527000       0.02313850
    77  C          0.96248100       0.15473000       0.52313850
    78  C          0.03751900       0.15473000       0.97686150
    79  C          0.46248100       0.65473000       0.52313850
    80  C          0.53751900       0.65473000       0.97686150
    81  C         -0.00642900       0.18623000       0.44782160
    82  C          0.00642900       0.18623000       0.05217840
    83  C          0.49357100       0.68623000       0.44782160
    84  C          0.50642900       0.68623000       0.05217840
    85  C          0.00642900       0.81377000       0.55217840
    86  C         -0.00642900       0.81377000       0.94782160
    87  C          0.50642900       0.31377000       0.55217840
    88  C          0.49357100       0.31377000       0.94782160
    89  C          0.03127900       0.03673000       0.42310150
    90  C          0.96872100       0.03673000       0.07689850
    91  C          0.53127900       0.53673000       0.42310150
    92  C          0.46872100       0.53673000       0.07689850
    93  C          0.96872100       0.96327000       0.57689850
    94  C          0.03127900       0.96327000       0.92310150
    95  C          0.46872100       0.46327000       0.57689850
    96  C          0.53127900       0.46327000       0.92310150
    97  C          0.13330900       0.95187000       0.24257150
    98  C          0.86669100       0.95187000       0.25742850
    99  C          0.63330900       0.45187000       0.24257150
   100  C          0.36669100       0.45187000       0.25742850
   101  C          0.86669100       0.04813000       0.75742850
   102  C          0.13330900       0.04813000       0.74257150
   103  C          0.36669100       0.54813000       0.75742850
   104  C          0.63330900       0.54813000       0.74257150
   105  C          0.13538900       0.80477000       0.16846150
   106  C          0.86461100       0.80477000       0.33153850
   107  C          0.63538900       0.30477000       0.16846150
   108  C          0.36461100       0.30477000       0.33153850
   109  C          0.86461100       0.19523000       0.83153850
   110  C          0.13538900       0.19523000       0.66846150
   111  C          0.36461100       0.69523000       0.83153850
   112  C          0.63538900       0.69523000       0.66846150
   113  C          0.16736900       0.83037000       0.09514150
   114  C          0.83263100       0.83037000       0.40485850
   115  C          0.66736900       0.33037000       0.09514150
   116  C          0.33263100       0.33037000       0.40485850
   117  C          0.83263100       0.16963000       0.90485850
   118  C          0.16736900       0.16963000       0.59514150
   119  C          0.33263100       0.66963000       0.90485850
   120  C          0.66736900       0.66963000       0.59514150
   121  C          0.19853900       0.00923000       0.09216150
   122  C          0.80146100       0.00923000       0.40783850
   123  C          0.69853900       0.50923000       0.09216150
   124  C          0.30146100       0.50923000       0.40783850
   125  C          0.80146100      -0.00923000       0.90783850
   126  C          0.19853900      -0.00923000       0.59216150
   127  C          0.30146100       0.49077000       0.90783850
   128  C          0.69853900       0.49077000       0.59216150
   129  C          0.19696900       0.15983000       0.16323160
   130  C          0.80303100       0.15983000       0.33676840
   131  C          0.69696900       0.65983000       0.16323160
   132  C          0.30303100       0.65983000       0.33676840
   133  C          0.80303100       0.84017000       0.83676840
   134  C          0.19696900       0.84017000       0.66323160
   135  C          0.30303100       0.34017000       0.83676840
   136  C          0.69696900       0.34017000       0.66323160
   137  C          0.16549900       0.13003000       0.23664150
   138  C          0.83450100       0.13003000       0.26335850
   139  C          0.66549900       0.63003000       0.23664150
   140  C          0.33450100       0.63003000       0.26335850
   141  C          0.83450100       0.86997000       0.76335850
   142  C          0.16549900       0.86997000       0.73664150
   143  C          0.33450100       0.36997000       0.76335850
   144  C          0.66549900       0.36997000       0.73664150
   145  H          0.05779000       0.19630000       0.31001600
   146  H          0.94221000       0.19630000       0.18998400
   147  H          0.55779000       0.69630000       0.31001600
   148  H          0.44221000       0.69630000       0.18998400
   149  H          0.94221000       0.80370000       0.68998400
   150  H          0.05779000       0.80370000       0.81001600
   151  H          0.44221000       0.30370000       0.68998400
   152  H          0.55779000       0.30370000       0.81001600
   153  H          0.13401000       0.63170000       0.36371600
   154  H          0.86599000       0.63170000       0.13628400
   155  H          0.63401000       0.13170000       0.36371600
   156  H          0.36599000       0.13170000       0.13628400
   157  H          0.86599000       0.36830000       0.63628400
   158  H          0.13401000       0.36830000       0.86371600
   159  H          0.36599000       0.86830000       0.63628400
   160  H          0.63401000       0.86830000       0.86371600
   161  H          0.08041000       0.57170000       0.48731700
   162  H          0.91959000       0.57170000       0.01268300
   163  H          0.58041000       0.07170000       0.48731700
   164  H          0.41959000       0.07170000       0.01268300
   165  H          0.91959000       0.42830000       0.51268300
   166  H          0.08041000       0.42830000       0.98731700
   167  H          0.41959000       0.92830000       0.51268300
   168  H          0.58041000       0.92830000       0.98731700
   169  H          0.98912000       0.31030000       0.41131400
   170  H          0.01088000       0.31030000       0.08868600
   171  H          0.48912000       0.81030000       0.41131400
   172  H          0.51088000       0.81030000       0.08868600
   173  H          0.01088000       0.68970000       0.58868600
   174  H          0.98912000       0.68970000       0.91131400
   175  H          0.51088000       0.18970000       0.58868600
   176  H          0.48912000       0.18970000       0.91131400
