data_NEQDOG02
_symmetry_space_group_name_H-M    'P1'
_symmetry_Int_Tables_number       1
loop_
_symmetry_equiv_pos_site_id
_symmetry_equiv_pos_as_xyz
1 x,y,z
_cell_length_a                   3.77102
_cell_length_b                   6.44093
_cell_length_c                   19.59479
_cell_angle_alpha                97.0534
_cell_angle_beta                 93.3554
_cell_angle_gamma                90.6524
loop_
_atom_site_label
_atom_site_type_symbol
_atom_site_fract_x
_atom_site_fract_y
_atom_site_fract_z
     1  F          0.48183000       0.73709160       0.21030500
     2  F          0.51817000       0.26290840       0.78969500
     3  F          0.95797000       0.09651150       0.25162500
     4  F          0.04203000       0.90348850       0.74837500
     5  F          0.90457000       0.97320830       0.11620600
     6  F          0.09543000       0.02679170       0.88379400
     7  F          0.42104000       0.61027190       0.07468600
     8  F          0.57896000       0.38972810       0.92531400
     9  F          0.13404000       0.22782000       0.02640600
    10  F          0.86596000       0.77218000       0.97359400
    11  C          0.45344000       0.42762000       0.42866800
    12  C          0.54656000       0.57238000       0.57133200
    13  C          0.65264000       0.36502000       0.54504900
    14  C          0.34736000       0.63498000       0.45495100
    15  C          0.60314000       0.29912000       0.47487900
    16  C          0.39686000       0.70088000       0.52512100
    17  H          0.67188000       0.16523000       0.45805500
    18  H          0.32812000       0.83477000       0.54194500
    19  C          0.22424000       0.42193000       0.23692900
    20  C          0.77576000       0.57807000       0.76307100
    21  C          0.40554000       0.36142000       0.35676900
    22  C          0.59446000       0.63858000       0.64323100
    23  H          0.47195600       0.22733800       0.33963500
    24  H          0.52804400       0.77266200       0.66036500
    25  C          0.26404000       0.49023000       0.31218900
    26  C          0.73596000       0.50977000       0.68781100
    27  C          0.08095000       0.22733000       0.20921900
    28  C          0.91905000       0.77267000       0.79078100
    29  C          0.84594000       0.30423000       0.66135900
    30  C          0.15406000       0.69577000       0.33864100
    31  H          0.94567700       0.21664000       0.69130900
    32  H          0.05432300       0.78336000       0.30869100
    33  C          0.33165000       0.54823000       0.18843900
    34  C          0.66835000       0.45177000       0.81156100
    35  C          0.04915000       0.16033000       0.13969100
    36  C          0.95085000       0.83967000       0.86030900
    37  C          0.80514000       0.23712000       0.59299900
    38  C          0.19486000       0.76288000       0.40700100
    39  H          0.87872500       0.10355600       0.57690900
    40  H          0.12127500       0.89644400       0.42309100
    41  C          0.16135000       0.29023000       0.09344900
    42  C          0.83865000       0.70977000       0.90655100
    43  C          0.30365000       0.48603000       0.11868900
    44  C          0.69635000       0.51397000       0.88131100
