data_NICOAM16
_symmetry_space_group_name_H-M    'P1'
_symmetry_Int_Tables_number       1
loop_
_symmetry_equiv_pos_site_id
_symmetry_equiv_pos_as_xyz
1 x,y,z
_cell_length_a                   7.35253
_cell_length_b                   20.73839
_cell_length_c                   7.40584
_cell_angle_alpha                90.0
_cell_angle_beta                 91.0445
_cell_angle_gamma                90.0
loop_
_atom_site_label
_atom_site_type_symbol
_atom_site_fract_x
_atom_site_fract_y
_atom_site_fract_z
     1  O          0.09892000       0.43860700       0.15985190
     2  O          0.90108000       0.93860700       0.34014810
     3  O          0.90108000       0.56139300       0.84014810
     4  O          0.09892000       0.06139300       0.65985190
     5  N          0.11383000       0.54691800       0.17992000
     6  N          0.88617000       0.04691800       0.32008000
     7  N          0.88617000       0.45308200       0.82008000
     8  N          0.11383000       0.95308200       0.67992000
     9  H          0.06943900       0.55181600       0.07254700
    10  H          0.93056100       0.05181600       0.42745300
    11  H          0.93056100       0.44818400       0.92745300
    12  H          0.06943900       0.94818400       0.57254700
    13  H          0.14245600       0.58010500       0.24394600
    14  H          0.85754400       0.08010500       0.25605400
    15  H          0.85754400       0.41989500       0.75605400
    16  H          0.14245600       0.91989500       0.74394600
    17  N          0.34373000       0.53037900       0.70872000
    18  N          0.65627000       0.03037900       0.79128000
    19  N          0.65627000       0.46962100       0.29128000
    20  N          0.34373000       0.96962100       0.20872000
    21  C          0.21923000       0.48180100       0.43603000
    22  C          0.78077000       0.98180100       0.06397000
    23  C          0.78077000       0.51819900       0.56397000
    24  C          0.21923000       0.01819900       0.93603000
    25  C          0.26873000       0.53481100       0.54153000
    26  C          0.73127000       0.03481100       0.95847000
    27  C          0.73127000       0.46518900       0.45847000
    28  C          0.26873000       0.96518900       0.04153000
    29  H          0.24898200       0.57574400       0.49381100
    30  H          0.75101800       0.07574400       0.00618900
    31  H          0.75101800       0.42425600       0.50618900
    32  H          0.24898200       0.92425600      -0.00618900
    33  C          0.13803000       0.48818100       0.24673000
    34  C          0.86197000       0.98818100       0.25327000
    35  C          0.86197000       0.51181900       0.75327000
    36  C          0.13803000       0.01181900       0.74673000
    37  C          0.36783000       0.47081100       0.77543000
    38  C          0.63217000       0.97081100       0.72457000
    39  C          0.63217000       0.52918900       0.22457000
    40  C          0.36783000       0.02918900       0.27543000
    41  H          0.41887200       0.46673600       0.89061000
    42  H          0.58112800       0.96673600       0.60939000
    43  H          0.58112800       0.53326400       0.10939000
    44  H          0.41887200       0.03326400       0.39061000
    45  C          0.24593000       0.42072100       0.50933000
    46  C          0.75407000       0.92072100      -0.00933000
    47  C          0.75407000       0.57927900       0.49067000
    48  C          0.24593000       0.07927900       0.00933000
    49  H          0.21400300       0.38409200       0.44353000
    50  H          0.78599700       0.88409200       0.05647000
    51  H          0.78599700       0.61590800       0.55647000
    52  H          0.21400300       0.11590800       0.94353000
    53  C          0.32153000       0.41520100       0.68313000
    54  C          0.67847000       0.91520100       0.81687000
    55  C          0.67847000       0.58479900       0.31687000
    56  C          0.32153000       0.08479900       0.18313000
    57  H          0.34008200       0.37492200       0.73552600
    58  H          0.65991800       0.87492200       0.76447400
    59  H          0.65991800       0.62507800       0.26447400
    60  H          0.34008200       0.12507800       0.23552600
    61  O          0.63752000       0.76563800       0.52332000
    62  O          0.36248000       0.26563800       0.97668000
    63  O          0.36248000       0.23436200       0.47668000
    64  O          0.63752000       0.73436200       0.02332000
    65  N          0.56373000       0.86067900       0.38942000
    66  N          0.43627000       0.36067900       0.11058000
    67  N          0.43627000       0.13932100       0.61058000
    68  N          0.56373000       0.63932100       0.88942000
    69  H          0.67729800       0.86408800       0.36296800
    70  H          0.32270200       0.36408800       0.13703200
    71  H          0.32270200       0.13591200       0.63703200
    72  H          0.67729800       0.63591200       0.86296800
    73  H          0.49828900       0.87106700       0.29567400
    74  H          0.50171100       0.37106700       0.20432600
    75  H          0.50171100       0.12893300       0.70432600
    76  H          0.49828900       0.62893300       0.79567400
    77  N          0.16633000       0.67868900       0.33272000
    78  N          0.83367000       0.17868900       0.16728000
    79  N          0.83367000       0.32131100       0.66728000
    80  N          0.16633000       0.82131100       0.83272000
    81  C          0.34333000       0.77418100       0.38813000
    82  C          0.65667000       0.27418100       0.11187000
    83  C          0.65667000       0.22581900       0.61187000
    84  C          0.34333000       0.72581900       0.88813000
    85  C          0.31973000       0.70802100       0.38683000
    86  C          0.68027000       0.20802100       0.11317000
    87  C          0.68027000       0.29197900       0.61317000
    88  C          0.31973000       0.79197900       0.88683000
    89  H          0.41640700       0.68239300       0.42585100
    90  H          0.58359300       0.18239300       0.07414900
    91  H          0.58359300       0.31760700       0.57414900
    92  H          0.41640700       0.81760700       0.92585100
    93  C          0.52813000       0.79966100       0.43963000
    94  C          0.47187000       0.29966100       0.06037000
    95  C          0.47187000       0.20033900       0.56037000
    96  C          0.52813000       0.70033900       0.93963000
    97  C          0.02873000       0.71685110       0.28343000
    98  C          0.97127000       0.21685110       0.21657000
    99  C          0.97127000       0.28314890       0.71657000
   100  C          0.02873000       0.78314890       0.78343000
   101  H          0.92075000       0.69756700       0.24442700
   102  H          0.07925000       0.19756700       0.25557300
   103  H          0.07925000       0.30243300       0.75557300
   104  H          0.92075000       0.80243300       0.74442700
   105  C          0.19713000       0.81295110       0.33793000
   106  C          0.80287000       0.31295110       0.16207000
   107  C          0.80287000       0.18704890       0.66207000
   108  C          0.19713000       0.68704890       0.83793000
   109  H          0.20708300       0.85765600       0.33883900
   110  H          0.79291700       0.35765600       0.16116100
   111  H          0.79291700       0.14234400       0.66116100
   112  H          0.20708300       0.64234400       0.83883900
   113  C          0.03643000       0.78322110       0.28653000
   114  C          0.96357000       0.28322110       0.21347000
   115  C          0.96357000       0.21677890       0.71347000
   116  C          0.03643000       0.71677890       0.78653000
   117  H          0.93480400       0.80763600       0.25440500
   118  H          0.06519600       0.30763600       0.24559500
   119  H          0.06519600       0.19236400       0.74559500
   120  H          0.93480400       0.69236400       0.75440500
