data_NICOAM17
_symmetry_space_group_name_H-M    'P1'
_symmetry_Int_Tables_number       1
loop_
_symmetry_equiv_pos_site_id
_symmetry_equiv_pos_as_xyz
1 x,y,z
_cell_length_a                   9.90113
_cell_length_b                   5.8773219
_cell_length_c                   10.27845
_cell_angle_alpha                90.0
_cell_angle_beta                 100.0034
_cell_angle_gamma                90.0
loop_
_atom_site_label
_atom_site_type_symbol
_atom_site_fract_x
_atom_site_fract_y
_atom_site_fract_z
     1  O          0.40997160       0.24933000       0.42563140
     2  O          0.59002840       0.74933000       0.07436860
     3  O          0.59002840       0.75067000       0.57436860
     4  O          0.40997160       0.25067000       0.92563140
     5  N          0.43390190       0.13303000       0.64554170
     6  N          0.56609810       0.63303000       0.85445830
     7  N          0.56609810       0.86697000       0.35445830
     8  N          0.43390190       0.36697000       0.14554170
     9  H          0.37086700       0.09336600       0.68924200
    10  H          0.62913300       0.59336600       0.81075800
    11  H          0.62913300       0.90663400       0.31075800
    12  H          0.37086700       0.40663400       0.18924200
    13  H          0.46972300       0.01292800       0.61751600
    14  H          0.53027700       0.51292800       0.88248400
    15  H          0.53027700      -0.01292800       0.38248400
    16  H          0.46972300       0.48707200       0.11751600
    17  N          0.10502000       0.53384000       0.69222000
    18  N          0.89498000       0.03384000       0.80778000
    19  N          0.89498000       0.46616000       0.30778000
    20  N          0.10502000       0.96616000       0.19222000
    21  C          0.27652000       0.43024000       0.56762000
    22  C          0.72348000       0.93024000       0.93238000
    23  C          0.72348000       0.56976000       0.43238000
    24  C          0.27652000       0.06976000       0.06762000
    25  C          0.37852000       0.26323000       0.54132000
    26  C          0.62148000       0.76323000       0.95868000
    27  C          0.62148000       0.73677000       0.45868000
    28  C          0.37852000       0.23677000       0.04132000
    29  C          0.25672000       0.62894000       0.49112000
    30  C          0.74328000       0.12894000       0.00888000
    31  C          0.74328000       0.37106000       0.50888000
    32  C          0.25672000       0.87106000      -0.00888000
    33  H          0.30704000       0.65517400       0.42416200
    34  H          0.69296000       0.15517400       0.07583800
    35  H          0.69296000       0.34482600       0.57583800
    36  H          0.30704000       0.84482600       0.92416200
    37  C          0.19592000       0.39064000       0.66502000
    38  C          0.80408000       0.89064000       0.83498000
    39  C          0.80408000       0.60936000       0.33498000
    40  C          0.19592000       0.10936000       0.16502000
    41  H          0.20824700       0.25512800       0.71223800
    42  H          0.79175300       0.75512800       0.78776200
    43  H          0.79175300       0.74487200       0.28776200
    44  H          0.20824700       0.24487200       0.21223800
    45  C          0.16253000       0.78164000       0.51713000
    46  C          0.83747000       0.28164000       0.98287000
    47  C          0.83747000       0.21836000       0.48287000
    48  C          0.16253000       0.71836000       0.01713000
    49  H          0.14657900       0.91626500       0.46942900
    50  H          0.85342100       0.41626500       0.03057100
    51  H          0.85342100       0.08373500       0.53057100
    52  H          0.14657900       0.58373500       0.96942900
    53  C          0.08993000       0.72905000       0.61863000
    54  C          0.91007000       0.22905000       0.88137000
    55  C          0.91007000       0.27095000       0.38137000
    56  C          0.08993000       0.77095000       0.11863000
    57  H          0.02630900       0.83516000       0.63739000
    58  H          0.97369100       0.33516000       0.86261000
    59  H          0.97369100       0.16484000       0.36261000
    60  H          0.02630900       0.66484000       0.13739000
