data_NICOAM08
_symmetry_space_group_name_H-M    'P1'
_symmetry_Int_Tables_number       1
loop_
_symmetry_equiv_pos_site_id
_symmetry_equiv_pos_as_xyz
1 x,y,z
_cell_length_a                   3.75253
_cell_length_b                   12.32297
_cell_length_c                   13.06186
_cell_angle_alpha                71.4995
_cell_angle_beta                 85.6766
_cell_angle_gamma                85.2025
loop_
_atom_site_label
_atom_site_type_symbol
_atom_site_fract_x
_atom_site_fract_y
_atom_site_fract_z
     1  O          0.04874000       0.66271110       0.44452110
     2  O          0.95126000       0.33728890       0.55547890
     3  N          0.28515000       0.52226130       0.37812130
     4  N          0.71485000       0.47773870       0.62187870
     5  H          0.20548000       0.46945900       0.43370000
     6  H          0.79452000       0.53054100       0.56630000
     7  H          0.40546800       0.50413200       0.32659700
     8  H          0.59453200       0.49586800       0.67340300
     9  N          0.57675000       0.76954150       0.08583140
    10  N          0.42325000       0.23045850       0.91416860
    11  C          0.36815000       0.71876160       0.27316150
    12  C          0.63185000       0.28123840       0.72683850
    13  C          0.44085000       0.82673160       0.27622160
    14  C          0.55915000       0.17326840       0.72377840
    15  H          0.38970700       0.84664200       0.33896800
    16  H          0.61029300       0.15335800       0.66103200
    17  C          0.22195000       0.63220160       0.37185150
    18  C          0.77805000       0.36779840       0.62814850
    19  C          0.43606000       0.69619170       0.17501160
    20  C          0.56394000       0.30380830       0.82498840
    21  H          0.37935000       0.62535400       0.17175800
    22  H          0.62065000       0.37464600       0.82824200
    23  C          0.58945000       0.90351170       0.18517170
    24  C          0.41055000       0.09648830       0.81482830
    25  H          0.64251700       0.97574400       0.18555800
    26  H          0.35748300       0.02425600       0.81444200
    27  C          0.65816000       0.87112180       0.09299170
    28  C          0.34184000       0.12887820       0.90700830
    29  H          0.76646000       0.92241300       0.03263600
    30  H          0.23354000       0.07758700       0.96736400
    31  O          0.39604000       0.04808110       0.35577120
    32  O          0.60396000       0.95191890       0.64422880
    33  N          0.21325000       0.13388140       0.48136140
    34  N          0.78675000       0.86611860       0.51863860
    35  H          0.31356400       0.07969000       0.53192600
    36  H          0.68643600       0.92031000       0.46807400
    37  H          0.09910200       0.19118500       0.49582600
    38  H          0.90089800       0.80881500       0.50417400
    39  N          0.73604000       0.41101140       0.23818130
    40  N          0.26396000       0.58898860       0.76181870
    41  C          0.87185000       0.32052160       0.31484160
    42  C          0.12815000       0.67947840       0.68515840
    43  H          0.83583100       0.31952700       0.38634900
    44  H          0.16416900       0.68047300       0.61365100
    45  C          0.23445000       0.12904150       0.38050160
    46  C          0.76555000       0.87095850       0.61949840
    47  C          0.06515000       0.22708150       0.29407160
    48  C          0.93485000       0.77291850       0.70592840
    49  C          0.10405000       0.22786170       0.18712170
    50  C          0.89595000       0.77213830       0.81287830
    51  H          0.22448800       0.16641300       0.16980600
    52  H          0.77551200       0.83358700       0.83019400
    53  C          0.78355000       0.41007170       0.13594160
    54  C          0.21645000       0.58992830       0.86405840
    55  H          0.69175600       0.47283400       0.08157400
    56  H          0.30824400       0.52716600       0.91842600
    57  C          0.96266000       0.32037180       0.10681170
    58  C          0.03734000       0.67962820       0.89318830
    59  H         -0.01313600       0.32247900       0.03483100
    60  H          0.01313600       0.67752100       0.96516900
