data_NICOAM04
_symmetry_space_group_name_H-M    'P1'
_symmetry_Int_Tables_number       1
loop_
_symmetry_equiv_pos_site_id
_symmetry_equiv_pos_as_xyz
1 x,y,z
_cell_length_a                   15.06345
_cell_length_b                   10.69764
_cell_length_c                   15.20675
_cell_angle_alpha                90.0
_cell_angle_beta                 102.1882
_cell_angle_gamma                90.0
loop_
_atom_site_label
_atom_site_type_symbol
_atom_site_fract_x
_atom_site_fract_y
_atom_site_fract_z
     1  O          0.61376900       0.94518880       0.04629900
     2  O          0.88623100       0.94518880       0.45370100
     3  O          0.38623100       0.05481120       0.95370100
     4  O          0.11376900       0.05481120       0.54629900
     5  C          0.75524120       0.21563170       0.12008120
     6  C          0.74475880       0.21563170       0.37991880
     7  C          0.24475880       0.78436830       0.87991880
     8  C          0.25524120       0.78436830       0.62008120
     9  H          0.71430000       0.27930000       0.09360000
    10  H          0.78570000       0.27930000       0.40640000
    11  H          0.28570000       0.72070000       0.90640000
    12  H          0.21430000       0.72070000       0.59360000
    13  N          0.56885100       0.14645150       0.04079110
    14  N          0.93114900       0.14645150       0.45920890
    15  N          0.43114900       0.85354850       0.95920890
    16  N          0.06885100       0.85354850       0.54079110
    17  H          0.51350000       0.12740000       0.01190000
    18  H          0.98650000       0.12740000       0.48810000
    19  H          0.48650000       0.87260000       0.98810000
    20  H          0.01350000       0.87260000       0.51190000
    21  H          0.58340000       0.22480000       0.05450000
    22  H          0.91660000       0.22480000       0.44550000
    23  H          0.41660000       0.77520000       0.94550000
    24  H          0.08340000       0.77520000       0.55450000
    25  C          0.72444120       0.09300160       0.11258120
    26  C          0.77555880       0.09300160       0.38741880
    27  C          0.27555880       0.90699840       0.88741880
    28  C          0.22444120       0.90699840       0.61258120
    29  C          0.87150130       0.03359180       0.19383140
    30  C          0.62849870       0.03359180       0.30616860
    31  C          0.12849870       0.96640820       0.80616860
    32  C          0.37150130       0.96640820       0.69383140
    33  H          0.91400000       0.97160000       0.22030000
    34  H          0.58600000       0.97160000       0.27970000
    35  H          0.08600000       0.02840000       0.77970000
    36  H          0.41400000       0.02840000       0.72030000
    37  N          0.83871100       0.24996140       0.16211110
    38  N          0.66128900       0.24996140       0.33788890
    39  N          0.16128900       0.75003860       0.83788890
    40  N          0.33871100       0.75003860       0.66211110
    41  C          0.89493130       0.15781180       0.19885130
    42  C          0.60506870       0.15781180       0.30114870
    43  C          0.10506870       0.84218820       0.80114870
    44  C          0.39493130       0.84218820       0.69885130
    45  H          0.95430000       0.17980000       0.23010000
    46  H          0.54570000       0.17980000       0.26990000
    47  H          0.04570000       0.82020000       0.76990000
    48  H          0.45430000       0.82020000       0.73010000
    49  C          0.63076120       0.05646170       0.06391120
    50  C          0.86923880       0.05646170       0.43608880
    51  C          0.36923880       0.94353830       0.93608880
    52  C          0.13076120       0.94353830       0.56391120
    53  C          0.78489120       0.00050170       0.14951130
    54  C          0.71510880       0.00050170       0.35048870
    55  C          0.21510880      -0.00050170       0.85048870
    56  C          0.28489120      -0.00050170       0.64951130
    57  H          0.76720000       0.91510000       0.14450000
    58  H          0.73280000       0.91510000       0.35550000
    59  H          0.23280000       0.08490000       0.85550000
    60  H          0.26720000       0.08490000       0.64450000
    61  O          0.60622900       0.72874110       0.32375900
    62  O          0.89377100       0.72874110       0.17624100
    63  O          0.39377100       0.27125890       0.67624100
    64  O          0.10622900       0.27125890       0.82375900
    65  N          0.61917110       0.52608140       0.36501100
    66  N          0.88082890       0.52608140       0.13498900
    67  N          0.38082890       0.47391860       0.63498900
    68  N          0.11917110       0.47391860       0.86501100
    69  H          0.61910000       0.54440000       0.42140000
    70  H          0.88090000       0.54440000       0.07860000
    71  H          0.38090000       0.45560000       0.57860000
    72  H          0.11910000       0.45560000       0.92140000
    73  H          0.62360000       0.44770000       0.34880000
    74  H          0.87640000       0.44770000       0.15120000
    75  H          0.37640000       0.55230000       0.65120000
    76  H          0.12360000       0.55230000       0.84880000
    77  N          0.59194110       0.42824150       0.09082100
    78  N          0.90805890       0.42824150       0.40917900
    79  N          0.40805890       0.57175850       0.90917900
    80  N          0.09194110       0.57175850       0.59082100
    81  C          0.61422120       0.58079160       0.20968120
    82  C          0.88577880       0.58079160       0.29031880
    83  C          0.38577880       0.41920840       0.79031880
    84  C          0.11422120       0.41920840       0.70968120
    85  C          0.61264120       0.61661160       0.30436120
    86  C          0.88735880       0.61661160       0.19563880
    87  C          0.38735880       0.38338840       0.69563880
    88  C          0.11264120       0.38338840       0.80436120
    89  C          0.59085120       0.46302170       0.17507120
    90  C          0.90914880       0.46302170       0.32492880
    91  C          0.40914880       0.53697830       0.82492880
    92  C          0.09085120       0.53697830       0.67507120
    93  H          0.57280000       0.40270000       0.21370000
    94  H          0.92720000       0.40270000       0.28630000
    95  H          0.42720000       0.59730000       0.78630000
    96  H          0.07280000       0.59730000       0.71370000
    97  C          0.63853140       0.66885180       0.15265130
    98  C          0.86146860       0.66885180       0.34734870
    99  C          0.36146860       0.33114820       0.84734870
   100  C          0.13853140       0.33114820       0.65265130
   101  H          0.65310000       0.75180000       0.17290000
   102  H          0.84690000       0.75180000       0.32710000
   103  H          0.34690000       0.24820000       0.82710000
   104  H          0.15310000       0.24820000       0.67290000
   105  C          0.61811140       0.51473180       0.03805130
   106  C          0.88188860       0.51473180       0.46194870
   107  C          0.38188860       0.48526820       0.96194870
   108  C          0.11811140       0.48526820       0.53805130
   109  H          0.62070000       0.49200000       0.97830000
   110  H          0.87930000       0.49200000       0.52170000
   111  H          0.37930000       0.50800000       0.02170000
   112  H          0.12070000       0.50800000       0.47830000
   113  C          0.64137160       0.63462000       0.06580140
   114  C          0.85862840       0.63462000       0.43419860
   115  C          0.35862840       0.36538000       0.93419860
   116  C          0.14137160       0.36538000       0.56580140
   117  H          0.65920000       0.69310000       0.02580000
   118  H          0.84080000       0.69310000       0.47420000
   119  H          0.34080000       0.30690000       0.97420000
   120  H          0.15920000       0.30690000       0.52580000
   121  O          0.62027110       0.61660120       0.54621900
   122  O          0.87972890       0.61660120       0.95378100
   123  O          0.37972890       0.38339880       0.45378100
   124  O          0.12027110       0.38339880       0.04621900
   125  N          0.64114100       0.81768140       0.51327100
   126  N          0.85885900       0.81768140       0.98672900
   127  N          0.35885900       0.18231860       0.48672900
   128  N          0.14114100       0.18231860       0.01327100
   129  H          0.64150000       0.79990000       0.45690000
   130  H          0.85850000       0.79990000       0.04310000
   131  H          0.35850000       0.20010000       0.54310000
   132  H          0.14150000       0.20010000       0.95690000
   133  H          0.64800000       0.89550000       0.53220000
   134  H          0.85200000       0.89550000       0.96780000
   135  H          0.35200000       0.10450000       0.46780000
   136  H          0.14800000       0.10450000       0.03220000
   137  N          0.62519100       0.91347140       0.78063100
   138  N          0.87480900       0.91347140       0.71936900
   139  N          0.37480900       0.08652860       0.21936900
   140  N          0.12519100       0.08652860       0.28063100
   141  C          0.63010120       0.72664170       0.57007120
   142  C          0.86989880       0.72664170       0.92992880
   143  C          0.36989880       0.27335830       0.42992880
   144  C          0.13010120       0.27335830       0.07007120
   145  C          0.62900110       0.75995160       0.66544120
   146  C          0.87099890       0.75995160       0.83455880
   147  C          0.37099890       0.24004840       0.33455880
   148  C          0.12900110       0.24004840       0.16544120
   149  C          0.62723120       0.88211170       0.69559130
   150  C          0.87276880       0.88211170       0.80440870
   151  C          0.37276880       0.11788830       0.30440870
   152  C          0.12723120       0.11788830       0.19559130
   153  H          0.62750000       0.94760000       0.65350000
   154  H          0.87250000       0.94760000       0.84650000
   155  H          0.37250000       0.05240000       0.34650000
   156  H          0.12750000       0.05240000       0.15350000
   157  C          0.62586120       0.81964170       0.83900130
   158  C          0.87413880       0.81964170       0.66099870
   159  C          0.37413880       0.18035830       0.16099870
   160  C          0.12586120       0.18035830       0.33900130
   161  H          0.62600000       0.83960000       0.89990000
   162  H          0.87400000       0.83960000       0.60010000
   163  H          0.37400000       0.16040000       0.10010000
   164  H          0.12600000       0.16040000       0.39990000
   165  C          0.62741120       0.66477170       0.72730130
   166  C          0.87258880       0.66477170       0.77269870
   167  C          0.37258880       0.33522830       0.27269870
   168  C          0.12741120       0.33522830       0.22730130
   169  H          0.62710000       0.57970000       0.70930000
   170  H          0.87290000       0.57970000       0.79070000
   171  H          0.37290000       0.42030000       0.29070000
   172  H          0.12710000       0.42030000       0.20930000
   173  C          0.62634130       0.69537180       0.81500130
   174  C          0.87365870       0.69537180       0.68499870
   175  C          0.37365870       0.30462820       0.18499870
   176  C          0.12634130       0.30462820       0.31500130
   177  H          0.62590000       0.63170000       0.85850000
   178  H          0.87410000       0.63170000       0.64150000
   179  H          0.37410000       0.36830000       0.14150000
   180  H          0.12590000       0.36830000       0.35850000
   181  O          0.38960100       0.60142120       0.18556100
   182  O          0.11039900       0.60142120       0.31443900
   183  O          0.61039900       0.39857880       0.81443900
   184  O          0.88960100       0.39857880       0.68556100
   185  N          0.42020110       0.80539140       0.21442110
   186  N          0.07979890       0.80539140       0.28557890
   187  N          0.57979890       0.19460860       0.78557890
   188  N          0.92020110       0.19460860       0.71442110
   189  H          0.47550000       0.78950000       0.24490000
   190  H          0.02450000       0.78950000       0.25510000
   191  H          0.52450000       0.21050000       0.75510000
   192  H          0.97550000       0.21050000       0.74490000
   193  H          0.40060000       0.88300000       0.20770000
   194  H          0.09940000       0.88300000       0.29230000
   195  H          0.59940000       0.11700000       0.79230000
   196  H          0.90060000       0.11700000       0.70770000
   197  C          0.24673130       0.86556170       0.10002120
   198  C          0.25326870       0.86556170       0.39997880
   199  C          0.75326870       0.13443830       0.89997880
   200  C          0.74673130       0.13443830       0.60002120
   201  H          0.29140000       0.92940000       0.11280000
   202  H          0.20860000       0.92940000       0.38720000
   203  H          0.70860000       0.07060000       0.88720000
   204  H          0.79140000       0.07060000       0.61280000
   205  N          0.16311110       0.89754140       0.05586100
   206  N          0.33688890       0.89754140       0.44413900
   207  N          0.83688890       0.10245860       0.94413900
   208  N          0.66311110       0.10245860       0.55586100
   209  C          0.27195130       0.74523160       0.12818120
   210  C          0.22804870       0.74523160       0.37181880
   211  C          0.72804870       0.25476840       0.87181880
   212  C          0.77195130       0.25476840       0.62818120
   213  C          0.10165140       0.80575190       0.03938140
   214  C          0.39834860       0.80575190       0.46061860
   215  C          0.89834860       0.19424810       0.96061860
   216  C          0.60165140       0.19424810       0.53938140
   217  H          0.04160000       0.82650000       0.00920000
   218  H          0.45840000       0.82650000       0.49080000
   219  H          0.95840000       0.17350000      -0.00920000
   220  H          0.54160000       0.17350000       0.50920000
   221  C          0.36579130       0.71132170       0.17821130
   222  C          0.13420870       0.71132170       0.32178870
   223  C          0.63420870       0.28867830       0.82178870
   224  C          0.86579130       0.28867830       0.67821130
   225  C          0.20670140       0.65203180       0.10804140
   226  C          0.29329860       0.65203180       0.39195860
   227  C          0.79329860       0.34796820       0.89195860
   228  C          0.70670140       0.34796820       0.60804140
   229  H          0.22150000       0.56780000       0.12480000
   230  H          0.27850000       0.56780000       0.37520000
   231  H          0.77850000       0.43220000       0.87520000
   232  H          0.72150000       0.43220000       0.62480000
   233  C          0.12008140       0.68332000       0.06345150
   234  C          0.37991860       0.68332000       0.43654850
   235  C          0.87991860       0.31668000       0.93654850
   236  C          0.62008140       0.31668000       0.56345150
   237  H          0.07410000       0.62140000       0.04970000
   238  H          0.42590000       0.62140000       0.45030000
   239  H          0.92590000       0.37860000       0.95030000
   240  H          0.57410000       0.37860000       0.54970000
