data_NICOAM18
_symmetry_space_group_name_H-M    'P1'
_symmetry_Int_Tables_number       1
loop_
_symmetry_equiv_pos_site_id
_symmetry_equiv_pos_as_xyz
1 x,y,z
_cell_length_a                   7.55642
_cell_length_b                   7.94132
_cell_length_c                   10.79744
_cell_angle_alpha                108.1003
_cell_angle_beta                 102.5962
_cell_angle_gamma                98.2932
loop_
_atom_site_label
_atom_site_type_symbol
_atom_site_fract_x
_atom_site_fract_y
_atom_site_fract_z
     1  O          0.21812000       0.62862000       0.62030150
     2  O          0.78188000       0.37138000       0.37969850
     3  N          0.14173000       0.59173000       0.39838180
     4  N          0.85827000       0.40827000       0.60161820
     5  H          0.02808100       0.53979000       0.38639900
     6  H          0.97191900       0.46021000       0.61360100
     7  H          0.17682800       0.60714300       0.33132500
     8  H          0.82317200       0.39285700       0.66867500
     9  N          0.69833000       0.85323000       0.45026190
    10  N          0.30167000       0.14677000       0.54973810
    11  C          0.26283000       0.64803000       0.52052000
    12  C          0.73717000       0.35197000       0.47948000
    13  C          0.45963000       0.74033000       0.53902000
    14  C          0.54037000       0.25967000       0.46098000
    15  C          0.58673000       0.79783000       0.66652000
    16  C          0.41327000       0.20217000       0.33348000
    17  H          0.54946300       0.78032900       0.73908600
    18  H          0.45053700       0.21967100       0.26091400
    19  C          0.81873000       0.90563000       0.57382000
    20  C          0.18127000       0.09437000       0.42618000
    21  H          0.94149200       0.96110600       0.58598700
    22  H          0.05850800       0.03889400       0.41401300
    23  C          0.52283000       0.77323000       0.43492000
    24  C          0.47717000       0.22677000       0.56508000
    25  H          0.43796500       0.73748400       0.34975200
    26  H          0.56203500       0.26251600       0.65024800
    27  C          0.76883000       0.88113000       0.68452000
    28  C          0.23117000       0.11887000       0.31548000
    29  H          0.85600000       0.91983400       0.76886800
    30  H          0.14400000       0.08016600       0.23113200
    31  N          0.78463000       0.42903000       0.87196820
    32  N          0.21537000       0.57097000       0.12803180
    33  O          0.76223000       0.96483000       0.00969180
    34  O          0.23777000       0.03517000      -0.00969180
    35  N          0.73593000       0.96873000       0.21424190
    36  N          0.26407000       0.03127000       0.78575810
    37  H          0.73410100       0.08222800       0.24054400
    38  H          0.26589900       0.91777200       0.75945600
    39  H          0.72811500       0.90911300       0.26785800
    40  H          0.27188500       0.09088700       0.73214200
    41  C          0.78373000       0.60453000       0.92388000
    42  C          0.21627000       0.39547000       0.07612000
    43  H          0.80420400       0.67648300       0.87272100
    44  H          0.19579600       0.32351700       0.12727900
    45  C          0.75423000       0.68813000       0.04982000
    46  C          0.24577000       0.31187000       0.95018000
    47  C          0.72823000       0.57943000       0.12702000
    48  C          0.27177000       0.42057000       0.87298000
    49  H          0.71025800       0.62899600       0.21223500
    50  H          0.28974200       0.37100400       0.78776500
    51  C          0.72953000       0.39783000       0.07542000
    52  C          0.27047000       0.60217000       0.92458000
    53  H          0.71297600       0.32335700       0.12547600
    54  H          0.28702400       0.67664300       0.87452400
    55  C          0.75603000       0.32743000       0.94758000
    56  C          0.24397000       0.67257000       0.05242000
    57  H          0.75366700       0.20401700       0.91278600
    58  H          0.24633300       0.79598300       0.08721400
    59  C          0.75083000       0.88473000       0.08972000
    60  C          0.24917000       0.11527000       0.91028000
