data_NICOAM01
_symmetry_space_group_name_H-M    'P1'
_symmetry_Int_Tables_number       1
loop_
_symmetry_equiv_pos_site_id
_symmetry_equiv_pos_as_xyz
1 x,y,z
_cell_length_a                   3.8774
_cell_length_b                   15.601
_cell_length_c                   9.3756
_cell_angle_alpha                90.0
_cell_angle_beta                 98.457
_cell_angle_gamma                90.0
loop_
_atom_site_label
_atom_site_type_symbol
_atom_site_fract_x
_atom_site_fract_y
_atom_site_fract_z
     1  C         -0.03842000       0.33937400       0.19344600
     2  C          0.03842000       0.83937400       0.30655400
     3  C          0.03842000       0.66062600       0.80655400
     4  C         -0.03842000       0.16062600       0.69344600
     5  C          0.15281000       0.35815400       0.32749500
     6  C          0.84719000       0.85815400       0.17250500
     7  C          0.84719000       0.64184600       0.67250500
     8  C          0.15281000       0.14184600       0.82749500
     9  C          0.17452000       0.44285400       0.37152600
    10  C          0.82548000       0.94285400       0.12847400
    11  C          0.82548000       0.55714600       0.62847400
    12  C          0.17452000       0.05714600       0.87152600
    13  C          0.01842000       0.50592400       0.28065700
    14  C         -0.01842000       0.00592400       0.21934300
    15  C         -0.01842000       0.49407600       0.71934300
    16  C          0.01842000      -0.00592400       0.78065700
    17  C          0.83558000       0.48110400       0.14914700
    18  C          0.16442000       0.98110400       0.35085300
    19  C          0.16442000       0.51889600       0.85085300
    20  C          0.83558000       0.01889600       0.64914700
    21  C          0.32832000       0.29179400       0.42823500
    22  C          0.67168000       0.79179400       0.07176500
    23  C          0.67168000       0.70820600       0.57176500
    24  C          0.32832000       0.20820600       0.92823500
    25  N          0.80239000       0.39949300       0.10545500
    26  N          0.19761000       0.89949300       0.39454500
    27  N          0.19761000       0.60050700       0.89454500
    28  N          0.80239000       0.10050700       0.60545500
    29  N          0.40582000       0.21699400       0.37214600
    30  N          0.59418000       0.71699400       0.12785400
    31  N          0.59418000       0.78300600       0.62785400
    32  N          0.40582000       0.28300600       0.87214600
    33  O          0.39631000       0.30857300       0.55835400
    34  O          0.60369000       0.80857300       0.94164600
    35  O          0.60369000       0.69142700       0.44164600
    36  O          0.39631000       0.19142700       0.05835400
    37  H          0.91670000       0.28436000       0.15810000
    38  H          0.08330000       0.78436000       0.34190000
    39  H          0.08330000       0.71564000       0.84190000
    40  H          0.91670000       0.21564000       0.65810000
    41  H          0.31230000       0.45497000       0.47310000
    42  H          0.68770000       0.95497000       0.02690000
    43  H          0.68770000       0.54503000       0.52690000
    44  H          0.31230000       0.04503000       0.97310000
    45  H          0.02330000       0.56208000       0.31410000
    46  H         -0.02330000       0.06208000       0.18590000
    47  H         -0.02330000       0.43792000       0.68590000
    48  H          0.02330000       0.93792000       0.81410000
    49  H          0.72470000       0.52297000       0.07910000
    50  H          0.27530000       0.02297000       0.42090000
    51  H          0.27530000       0.47703000       0.92090000
    52  H          0.72470000       0.97703000       0.57910000
    53  H          0.40030000       0.21027000       0.27810000
    54  H          0.59970000       0.71027000       0.22190000
    55  H          0.59970000       0.78973000       0.72190000
    56  H          0.40030000       0.28973000       0.77810000
    57  H          0.51130000       0.17707000       0.43410000
    58  H          0.48870000       0.67707000       0.06590000
    59  H          0.48870000       0.82293000       0.56590000
    60  H          0.51130000       0.32293000       0.93410000
