data_NICOAM07
_symmetry_space_group_name_H-M    'P1'
_symmetry_Int_Tables_number       1
loop_
_symmetry_equiv_pos_site_id
_symmetry_equiv_pos_as_xyz
1 x,y,z
_cell_length_a                   3.812314
_cell_length_b                   14.3879419
_cell_length_c                   5.119426
_cell_angle_alpha                90.0
_cell_angle_beta                 94.25601
_cell_angle_gamma                90.0
loop_
_atom_site_label
_atom_site_type_symbol
_atom_site_fract_x
_atom_site_fract_y
_atom_site_fract_z
     1  O          0.90773000       0.36635900       0.68722000
     2  O          0.09227000       0.86635900       0.31278000
     3  N          0.89544000       0.32839100       0.25753000
     4  N          0.10456000       0.82839100       0.74247000
     5  H          0.95368000       0.27166600       0.29128800
     6  H          0.04632000       0.77166600       0.70871200
     7  H          0.85986300       0.34657000       0.09771700
     8  H          0.14013700       0.84657000       0.90228300
     9  N          0.82914000       0.64631900       0.52243000
    10  N          0.17086000       0.14631900       0.47757000
    11  C          0.86024000       0.38821100       0.45313000
    12  C          0.13976000       0.88821100       0.54687000
    13  C          0.76844000       0.48656110       0.38103000
    14  C          0.23156000       0.98656110       0.61897000
    15  C          0.88374000       0.55562120       0.55953000
    16  C          0.11626000       0.05562120       0.44047000
    17  H          0.00665100       0.53702000       0.71442300
    18  H         -0.00665100       0.03702000       0.28557700
    19  C          0.57864000       0.51429120       0.15073000
    20  C          0.42136000       0.01429120       0.84927000
    21  H          0.49702300       0.47082500       0.02614500
    22  H          0.50297700       0.97082500      -0.02614500
    23  C          0.51444000       0.60872120       0.11223000
    24  C          0.48556000       0.10872120       0.88777000
    25  H          0.38556700       0.62929800       0.96191000
    26  H          0.61443300       0.12929800       0.03809000
    27  C          0.64474000       0.67201110       0.30043000
    28  C          0.35526000       0.17201110       0.69957000
    29  H          0.60223800       0.73495000       0.27132500
    30  H          0.39776200       0.23495000       0.72867500
