data_NICOAM15
_symmetry_space_group_name_H-M    'P1'
_symmetry_Int_Tables_number       1
loop_
_symmetry_equiv_pos_site_id
_symmetry_equiv_pos_as_xyz
1 x,y,z
_cell_length_a                   15.36717
_cell_length_b                   7.38475
_cell_length_c                   21.19501
_cell_angle_alpha                90.0
_cell_angle_beta                 104.6505
_cell_angle_gamma                90.0
loop_
_atom_site_label
_atom_site_type_symbol
_atom_site_fract_x
_atom_site_fract_y
_atom_site_fract_z
     1  O          0.11101140       0.62654000       0.17895100
     2  O          0.88898860       0.12654000       0.32104900
     3  O          0.88898860       0.37346000       0.82104900
     4  O          0.11101140       0.87346000       0.67895100
     5  N          0.14031160       0.63324000       0.28882130
     6  N          0.85968840       0.13324000       0.21117870
     7  N          0.85968840       0.36676000       0.71117870
     8  N          0.14031160       0.86676000       0.78882130
     9  H          0.19871700       0.63949600       0.29318800
    10  H          0.80128300       0.13949600       0.20681200
    11  H          0.80128300       0.36050400       0.70681200
    12  H          0.19871700       0.86050400       0.79318800
    13  H          0.11888600       0.63200000       0.32359300
    14  H          0.88111400       0.13200000       0.17640700
    15  H          0.88111400       0.36800000       0.67640700
    16  H          0.11888600       0.86800000       0.82359300
    17  N          0.86059820       0.59485000       0.27373130
    18  N          0.13940180       0.09485000       0.22626870
    19  N          0.13940180       0.40515000       0.72626870
    20  N          0.86059820       0.90515000       0.77373130
    21  C          0.98474810       0.61245000       0.22407140
    22  C          0.01525190       0.11245000       0.27592860
    23  C          0.01525190       0.38755000       0.77592860
    24  C          0.98474810       0.88755000       0.72407140
    25  C          0.08489190       0.62545000       0.23017140
    26  C          0.91510810       0.12545000       0.26982860
    27  C          0.91510810       0.37455000       0.76982860
    28  C          0.08489190       0.87455000       0.73017140
    29  C          0.94888000       0.60665000       0.27814150
    30  C          0.05112000       0.10665000       0.22185850
    31  C          0.05112000       0.39335000       0.72185850
    32  C          0.94888000       0.89335000       0.77814150
    33  H         -0.01093600       0.61128400       0.32031500
    34  H          0.01093600       0.11128400       0.17968500
    35  H          0.01093600       0.38871600       0.67968500
    36  H         -0.01093600       0.88871600       0.82031500
    37  C          0.80528000       0.58715000       0.21381170
    38  C          0.19472000       0.08715000       0.28618830
    39  C          0.19472000       0.41285000       0.78618830
    40  C          0.80528000       0.91285000       0.71381170
    41  H          0.74251300       0.57656600       0.20989200
    42  H          0.25748700       0.07656600       0.29010800
    43  H          0.25748700       0.42343400       0.79010800
    44  H          0.74251300       0.92343400       0.70989200
    45  C          0.83458000       0.59385000       0.15734160
    46  C          0.16542000       0.09385000       0.34265840
    47  C          0.16542000       0.40615000       0.84265840
    48  C          0.83458000       0.90615000       0.65734160
    49  H          0.79320600       0.58904600       0.11565700
    50  H          0.20679400       0.08904600       0.38434300
    51  H          0.20679400       0.41095400       0.88434300
    52  H          0.79320600       0.91095400       0.61565700
    53  C          0.92628000       0.60765000       0.16334150
    54  C          0.07372000       0.10765000       0.33665850
    55  C          0.07372000       0.39235000       0.83665850
    56  C          0.92628000       0.89235000       0.66334150
    57  H          0.94855400       0.61362300       0.12547200
    58  H          0.05144600       0.11362300       0.37452800
    59  H          0.05144600       0.38637700       0.87452800
    60  H          0.94855400       0.88637700       0.62547200
    61  O          0.44679140       0.34264000       0.04370100
    62  O          0.55320860       0.84264000       0.45629900
    63  O          0.55320860       0.65736000       0.95629900
    64  O          0.44679140       0.15736000       0.54370100
    65  N          0.33579150       0.84036000       0.05009110
    66  N          0.66420850       0.34036000       0.44990890
    67  N          0.66420850       0.15964000       0.94990890
    68  N          0.33579150       0.65964000       0.55009110
    69  N          0.43249170       0.33714000       0.93552880
    70  N          0.56750830       0.83714000       0.56447120
    71  N          0.56750830       0.66286000       0.06447120
    72  N          0.43249170       0.16286000       0.43552880
    73  H          0.45672800       0.44515700       0.93591400
    74  H          0.54327200       0.94515700       0.56408600
    75  H          0.54327200       0.55484300       0.06408600
    76  H          0.45672800       0.05484300       0.43591400
    77  H          0.41463300       0.27718900       0.89861900
    78  H          0.58536700       0.77718900       0.60138100
    79  H          0.58536700       0.72281100       0.10138100
    80  H          0.41463300       0.22281100       0.39861900
    81  C          0.38398170       0.07605000       0.98770870
    82  C          0.61601830       0.57605000       0.51229130
    83  C          0.61601830       0.92395000       0.01229130
    84  C          0.38398170       0.42395000       0.48770870
    85  C          0.36793170       0.00725000       0.04463130
    86  C          0.63206830       0.50725000       0.45536870
    87  C          0.63206830      -0.00725000       0.95536870
    88  C          0.36793170       0.49275000       0.54463130
    89  H          0.38045600       0.08290400       0.08209000
    90  H          0.61954400       0.58290400       0.41791000
    91  H          0.61954400       0.91709600       0.91791000
    92  H          0.38045600       0.41709600       0.58209000
    93  C          0.33233190       0.79195000       0.93773860
    94  C          0.66766810       0.29195000       0.56226140
    95  C          0.66766810       0.20805000       0.06226140
    96  C          0.33233190       0.70805000       0.43773860
    97  H          0.31987000       0.71271300       0.90125200
    98  H          0.68013000       0.21271300       0.59874800
    99  H          0.68013000       0.28728700       0.09874800
   100  H          0.31987000       0.78728700       0.40125200
   101  C          0.31806180       0.73625000      -0.00321150
   102  C          0.68193820       0.23625000       0.50321150
   103  C          0.68193820       0.26375000       0.00321150
   104  C          0.31806180       0.76375000       0.49678850
   105  H          0.29453000       0.61836200      -0.00052100
   106  H          0.70547000       0.11836200       0.50052100
   107  H          0.70547000       0.38163800       0.00052100
   108  H          0.29453000       0.88163800       0.49947900
   109  C          0.36517180       0.96555000       0.93265870
   110  C          0.63482820       0.46555000       0.56734130
   111  C          0.63482820       0.03445000       0.06734130
   112  C          0.36517180       0.53445000       0.43265870
   113  H          0.37453000       0.00777600       0.89254900
   114  H          0.62547000       0.50777600       0.60745100
   115  H          0.62547000      -0.00777600       0.10745100
   116  H          0.37453000       0.49222400       0.39254900
   117  C          0.42285180       0.26425000       0.99077860
   118  C          0.57714820       0.76425000       0.50922140
   119  C          0.57714820       0.73575000       0.00922140
   120  C          0.42285180       0.23575000       0.49077860
   121  O          0.67777130       0.27514000       0.71287900
   122  O          0.32222870       0.77514000       0.78712100
   123  O          0.32222870       0.72486000       0.28712100
   124  O          0.67777130       0.22486000       0.21287900
   125  N          0.42444170       0.20754000       0.80129880
   126  N          0.57555830       0.70754000       0.69870120
   127  N          0.57555830       0.79246000       0.19870120
   128  N          0.42444170       0.29246000       0.30129880
   129  N          0.70699150       0.24264000       0.82195880
   130  N          0.29300850       0.74264000       0.67804120
   131  N          0.29300850       0.75736000       0.17804120
   132  N          0.70699150       0.25736000       0.32195880
   133  H          0.76508100       0.25863100       0.82690600
   134  H          0.23491900       0.75863100       0.67309400
   135  H          0.23491900       0.74136900       0.17309400
   136  H          0.76508100       0.24136900       0.32690600
   137  H          0.68578400       0.22302100       0.85622300
   138  H          0.31421600       0.72302100       0.64377700
   139  H          0.31421600       0.77697900       0.14377700
   140  H          0.68578400       0.27697900       0.35622300
   141  C          0.55214180       0.21915000       0.75510870
   142  C          0.44785820       0.71915000       0.74489130
   143  C          0.44785820       0.78085000       0.24489130
   144  C          0.55214180       0.28085000       0.25510870
   145  C          0.40512000       0.16765000       0.68611860
   146  C          0.59488000       0.66765000       0.81388140
   147  C          0.59488000       0.83235000       0.31388140
   148  C          0.40512000       0.33235000       0.18611860
   149  H          0.36577700       0.14656900       0.64433200
   150  H          0.63422300       0.64656900       0.85566800
   151  H          0.63422300       0.85343100       0.35566800
   152  H          0.36577700       0.35343100       0.14433200
   153  C          0.49702000       0.19045000       0.69369860
   154  C          0.50298000       0.69045000       0.80630140
   155  C          0.50298000       0.80955000       0.30630140
   156  C          0.49702000       0.30955000       0.19369860
   157  H          0.52156100       0.18628000       0.65685000
   158  H          0.47843900       0.68628000       0.84315000
   159  H          0.47843900       0.81372000       0.34315000
   160  H          0.52156100       0.31372000       0.15685000
   161  C          0.37256190       0.17635000       0.74122850
   162  C          0.62743810       0.67635000       0.75877150
   163  C          0.62743810       0.82365000       0.25877150
   164  C          0.37256190       0.32365000       0.24122850
   165  H          0.30989900       0.15932500       0.73621800
   166  H          0.69010100       0.65932500       0.76378200
   167  H          0.69010100       0.84067500       0.26378200
   168  H          0.30989900       0.34067500       0.23621800
   169  C          0.51304190       0.22825000       0.80789860
   170  C          0.48695810       0.72825000       0.69210140
   171  C          0.48695810       0.77175000       0.19210140
   172  C          0.51304190       0.27175000       0.30789860
   173  H          0.55078500       0.25005400       0.85018100
   174  H          0.44921500       0.75005400       0.64981900
   175  H          0.44921500       0.74994600       0.14981900
   176  H          0.55078500       0.24994600       0.35018100
   177  C          0.65138180       0.24805000       0.76280860
   178  C          0.34861820       0.74805000       0.73719140
   179  C          0.34861820       0.75195000       0.23719140
   180  C          0.65138180       0.25195000       0.26280860
   181  N          0.10399170       0.63405000       0.42730120
   182  N          0.89600830       0.13405000       0.07269880
   183  N          0.89600830       0.36595000       0.57269880
   184  N          0.10399170       0.86595000       0.92730120
   185  N          0.16827180       0.21155000       0.60736130
   186  N          0.83172820       0.71155000       0.89263870
   187  N          0.83172820       0.78845000       0.39263870
   188  N          0.16827180       0.28845000       0.10736130
   189  H          0.18259500       0.10219000       0.62308200
   190  H          0.81740500       0.60219000       0.87691800
   191  H          0.81740500       0.89781000       0.37691800
   192  H          0.18259500       0.39781000       0.12308200
   193  H          0.15772900       0.29806800       0.63300400
   194  H          0.84227100       0.79806800       0.86699600
   195  H          0.84227100       0.70193200       0.36699600
   196  H          0.15772900       0.20193200       0.13300400
   197  O          0.17642000       0.13184000       0.50600130
   198  O          0.82358000       0.63184000      -0.00600130
   199  O          0.82358000       0.86816000       0.49399870
   200  O          0.17642000       0.36816000       0.00600130
   201  C          0.13512170       0.43645000       0.52093140
   202  C          0.86487830       0.93645000       0.97906860
   203  C          0.86487830       0.56355000       0.47906860
   204  C          0.13512170       0.06355000       0.02093140
   205  C          0.11077180       0.57025000       0.55873140
   206  C          0.88922820       0.07025000       0.94126860
   207  C          0.88922820       0.42975000       0.44126860
   208  C          0.11077180       0.92975000       0.05873140
   209  H          0.11280400       0.54944200       0.60331100
   210  H          0.88719600       0.04944200       0.89668900
   211  H          0.88719600       0.45055800       0.39668900
   212  H          0.11280400       0.95055800       0.10331100
   213  C          0.13165190       0.47355000       0.45606140
   214  C          0.86834810       0.97355000       0.04393860
   215  C          0.86834810       0.52645000       0.54393860
   216  C          0.13165190       0.02645000       0.95606140
   217  H          0.14962100       0.38152300       0.43067400
   218  H          0.85037900       0.88152300       0.06932600
   219  H          0.85037900       0.61847700       0.56932600
   220  H          0.14962100       0.11847700       0.93067400
   221  C          0.08322000       0.73635000       0.52948150
   222  C          0.91678000       0.23635000       0.97051850
   223  C          0.91678000       0.26365000       0.47051850
   224  C          0.08322000       0.76365000       0.02948150
   225  H          0.06710200       0.83267700       0.55398300
   226  H          0.93289800       0.33267700       0.94601700
   227  H          0.93289800       0.16732300       0.44601700
   228  H          0.06710200       0.66732300       0.05398300
   229  C          0.16252000       0.24635000       0.54440160
   230  C          0.83748000       0.74635000       0.95559840
   231  C          0.83748000       0.75365000       0.45559840
   232  C          0.16252000       0.25365000       0.04440160
   233  C          0.07972000       0.75835000       0.46473170
   234  C          0.92028000       0.25835000       0.03526830
   235  C          0.92028000       0.24165000       0.53526830
   236  C          0.07972000       0.74165000       0.96473170
   237  H          0.05828200       0.87089900       0.44516100
   238  H          0.94171800       0.37089900       0.05483900
   239  H          0.94171800       0.12910100       0.55483900
   240  H          0.05828200       0.62910100       0.94516100
