data_NILLEZ05
_symmetry_space_group_name_H-M    'P1'
_symmetry_Int_Tables_number       1
loop_
_symmetry_equiv_pos_site_id
_symmetry_equiv_pos_as_xyz
1 x,y,z
_cell_length_a                   11.22414
_cell_length_b                   19.33506
_cell_length_c                   5.58172
_cell_angle_alpha                90.0
_cell_angle_beta                 90.0
_cell_angle_gamma                90.0
loop_
_atom_site_label
_atom_site_type_symbol
_atom_site_fract_x
_atom_site_fract_y
_atom_site_fract_z
     1  N          0.64976190       0.29054100       0.45774000
     2  N          0.35023810       0.70945900       0.95774000
     3  N          0.14976190       0.20945900       0.45774000
     4  N          0.85023810       0.79054100       0.95774000
     5  N          0.62502000       0.28267120       0.22364000
     6  N          0.37498000       0.71732880       0.72364000
     7  N          0.12502000       0.21732880       0.22364000
     8  N          0.87498000       0.78267120       0.72364000
     9  N          0.53572000       0.32469110       0.17374000
    10  N          0.46428000       0.67530890       0.67374000
    11  N          0.03572000       0.17530890       0.17374000
    12  N          0.96428000       0.82469110       0.67374000
    13  C          0.50452000       0.35946120       0.37665000
    14  C          0.49548000       0.64053880       0.87665000
    15  C          0.00452000       0.14053880       0.37665000
    16  C         -0.00452000       0.85946120       0.87665000
    17  C          0.41192000       0.41314110       0.37524000
    18  C          0.58808000       0.58685890       0.87524000
    19  C          0.91192000       0.08685890       0.37524000
    20  C          0.08808000       0.91314110       0.87524000
    21  C          0.57742000       0.33738120       0.55815000
    22  C          0.42258000       0.66261880       0.05815000
    23  C          0.07742000       0.16261880       0.55815000
    24  C          0.92258000       0.83738120       0.05815000
    25  H          0.57680000       0.35210000       0.72050000
    26  H          0.42320000       0.64790000       0.22050000
    27  H          0.07680000       0.14790000       0.72050000
    28  H          0.92320000       0.85210000       0.22050000
    29  C          0.40582000       0.46080120       0.56375000
    30  C          0.59418000       0.53919880       0.06375000
    31  C          0.90582000       0.03919880       0.56375000
    32  C          0.09418000       0.96080120       0.06375000
    33  H          0.45850000       0.45680000       0.69610000
    34  H          0.54150000       0.54320000       0.19610000
    35  H          0.95850000       0.04320000       0.69610000
    36  H          0.04150000       0.95680000       0.19610000
    37  C          0.85672000       0.30534120       0.59315000
    38  C          0.14328000       0.69465880       0.09315000
    39  C          0.35672000       0.19465880       0.59315000
    40  C          0.64328000       0.80534120       0.09315000
    41  C          0.88362000       0.35390130       0.41775000
    42  C          0.11638000       0.64609870       0.91775000
    43  C          0.38362000       0.14609870       0.41775000
    44  C          0.61638000       0.85390130       0.91775000
    45  H          0.83550000       0.35700000       0.27800000
    46  H          0.16450000       0.64300000       0.77800000
    47  H          0.33550000       0.14300000       0.27800000
    48  H          0.66450000       0.85700000       0.77800000
    49  C          0.92732000       0.30139130       0.79605000
    50  C          0.07268000       0.69860870       0.29605000
    51  C          0.42732000       0.19860870       0.79605000
    52  C          0.57268000       0.80139130       0.29605000
    53  H          0.90920000       0.26860000       0.91740000
    54  H          0.09080000       0.73140000       0.41740000
    55  H          0.40920000       0.23140000       0.91740000
    56  H          0.59080000       0.76860000       0.41740000
    57  C          0.33302000       0.41969140       0.18425000
    58  C          0.66698000       0.58030860       0.68425000
    59  C          0.83302000       0.08030860       0.18425000
    60  C          0.16698000       0.91969140       0.68425000
    61  H          0.33520000       0.38740000       0.05610000
    62  H          0.66480000       0.61260000       0.55610000
    63  H          0.83520000       0.11260000       0.05610000
    64  H          0.16480000       0.88740000       0.55610000
    65  C          0.98042000       0.39798140       0.44525000
    66  C          0.01958000       0.60201860       0.94525000
    67  C          0.48042000       0.10201860       0.44525000
    68  C          0.51958000       0.89798140       0.94525000
    69  H         -0.00220000       0.43140000       0.32540000
    70  H          0.00220000       0.56860000       0.82540000
    71  H          0.49780000       0.06860000       0.32540000
    72  H          0.50220000       0.93140000       0.82540000
    73  C          0.02472000       0.34517140       0.82305000
    74  C          0.97528000       0.65482860       0.32305000
    75  C          0.52472000       0.15482860       0.82305000
    76  C          0.47528000       0.84517140       0.32305000
    77  H          0.07310000       0.34210000       0.96230000
    78  H          0.92690000       0.65790000       0.46230000
    79  H          0.57310000       0.15790000       0.96230000
    80  H          0.42690000       0.84210000       0.46230000
    81  C          0.24522000       0.52063130       0.36526000
    82  C          0.75478000       0.47936870       0.86526000
    83  C          0.74522000       0.97936870       0.36526000
    84  C          0.25478000       0.02063130       0.86526000
    85  H          0.18890000       0.55730000       0.36080000
    86  H          0.81110000       0.44270000       0.86080000
    87  H          0.68890000       0.94270000       0.36080000
    88  H          0.31110000       0.05730000       0.86080000
    89  C          0.32262000       0.51402130       0.55735000
    90  C          0.67738000       0.48597870       0.05735000
    91  C          0.82262000       0.98597870       0.55735000
    92  C          0.17738000       0.01402130       0.05735000
    93  H          0.31880000       0.54620000       0.68580000
    94  H          0.68120000       0.45380000       0.18580000
    95  H          0.81880000       0.95380000       0.68580000
    96  H          0.18120000       0.04620000       0.18580000
    97  C          0.25102000       0.47336130       0.18085000
    98  C          0.74898000       0.52663870       0.68085000
    99  C          0.75102000       0.02663870       0.18085000
   100  C          0.24898000       0.97336130       0.68085000
   101  H          0.19800000       0.47760000       0.04900000
   102  H          0.80200000       0.52240000       0.54900000
   103  H          0.69800000       0.02240000       0.04900000
   104  H          0.30200000       0.97760000       0.54900000
   105  C          0.05132000       0.39319140       0.64715000
   106  C          0.94868000       0.60680860       0.14715000
   107  C          0.55132000       0.10680860       0.64715000
   108  C          0.44868000       0.89319140       0.14715000
   109  H          0.11810000       0.42290000       0.66500000
   110  H          0.88190000       0.57710000       0.16500000
   111  H          0.61810000       0.07710000       0.66500000
   112  H          0.38190000       0.92290000       0.16500000
   113  C          0.75272000       0.25628130       0.56546000
   114  C          0.24728000       0.74371870       0.06546000
   115  C          0.25272000       0.24371870       0.56546000
   116  C          0.74728000       0.75628130       0.06546000
   117  H          0.77700000       0.21680000       0.46360000
   118  H          0.22300000       0.78320000       0.96360000
   119  H          0.27700000       0.28320000       0.46360000
   120  H          0.72300000       0.71680000       0.96360000
   121  H          0.73020000       0.23790000       0.72460000
   122  H          0.26980000       0.76210000       0.22460000
   123  H          0.23020000       0.26210000       0.72460000
   124  H          0.76980000       0.73790000       0.22460000
