data_NILLEZ
_symmetry_space_group_name_H-M    'P1'
_symmetry_Int_Tables_number       1
loop_
_symmetry_equiv_pos_site_id
_symmetry_equiv_pos_as_xyz
1 x,y,z
_cell_length_a                   6.0382
_cell_length_b                   8.0943
_cell_length_c                   25.61612
_cell_angle_alpha                90.0
_cell_angle_beta                 93.804
_cell_angle_gamma                90.0
loop_
_atom_site_label
_atom_site_type_symbol
_atom_site_fract_x
_atom_site_fract_y
_atom_site_fract_z
     1  C          0.83304000       0.17673000       0.29367900
     2  C          0.16696000       0.67673000       0.20632100
     3  C          0.16696000       0.82327000       0.70632100
     4  C          0.83304000       0.32327000       0.79367900
     5  H          0.89304000       0.12173000       0.32320900
     6  H          0.10696000       0.62173000       0.17679100
     7  H          0.10696000       0.87827000       0.67679100
     8  H          0.89304000       0.37827000       0.82320900
     9  C          0.94224000       0.17323000       0.24792110
    10  C          0.05776000       0.67323000       0.25207890
    11  C          0.05776000       0.82677000       0.75207890
    12  C          0.94224000       0.32677000       0.74792110
    13  H          0.07524000       0.11573000       0.24692110
    14  H          0.92476000       0.61573000       0.25307890
    15  H          0.92476000       0.88427000       0.75307890
    16  H          0.07524000       0.38427000       0.74692110
    17  C          0.85655000       0.25363000       0.20404100
    18  C          0.14345000       0.75363000       0.29595900
    19  C          0.14345000       0.74637000       0.79595900
    20  C          0.85655000       0.24637000       0.70404100
    21  H          0.93155000       0.25133000       0.17350100
    22  H          0.06845000       0.75133000       0.32649900
    23  H          0.06845000       0.74867000       0.82649900
    24  H          0.93155000       0.24867000       0.67350100
    25  C          0.65805000       0.33793000       0.20538100
    26  C          0.34195000       0.83793000       0.29461900
    27  C          0.34195000       0.66207000       0.79461900
    28  C          0.65805000       0.16207000       0.70538100
    29  H          0.59845000       0.39173000       0.17557100
    30  H          0.40155000       0.89173000       0.32442900
    31  H          0.40155000       0.60827000       0.82442900
    32  H          0.59845000       0.10827000       0.67557100
    33  C          0.54804000       0.34263000       0.25086900
    34  C          0.45196000       0.84263000       0.24913100
    35  C          0.45196000       0.65737000       0.74913100
    36  C          0.54804000       0.15737000       0.75086900
    37  H          0.41494000       0.40023000       0.25149900
    38  H          0.58506000       0.90023000       0.24850100
    39  H          0.58506000       0.59977000       0.74850100
    40  H          0.41494000       0.09977000       0.75149900
    41  C          0.63333000       0.26242000       0.29573800
    42  C          0.36667000       0.76242000       0.20426200
    43  C          0.36667000       0.73758000       0.70426200
    44  C          0.63333000       0.23758000       0.79573800
    45  C          0.51553000       0.26732000       0.34404800
    46  C          0.48447000       0.76732000       0.15595200
    47  C          0.48447000       0.73268000       0.65595200
    48  C          0.51553000       0.23268000       0.84404800
    49  C          0.32453000       0.34873000       0.35464800
    50  C          0.67547000       0.84873000       0.14535200
    51  C          0.67547000       0.65127000       0.64535200
    52  C          0.32453000       0.15127000       0.85464800
    53  H          0.23713000       0.41533000       0.33199800
    54  H          0.76287000       0.91533000       0.16800200
    55  H          0.76287000       0.58467000       0.66800200
    56  H          0.23713000       0.08467000       0.83199800
    57  N          0.28993000       0.31202000       0.40451600
    58  N          0.71007000       0.81202000       0.09548400
    59  N          0.71007000       0.68798000       0.59548400
    60  N          0.28993000       0.18798000       0.90451600
    61  N          0.44963000       0.21202000       0.42492700
    62  N          0.55037000       0.71202000       0.07507300
    63  N          0.55037000       0.78798000       0.57507300
    64  N          0.44963000       0.28798000       0.92492700
    65  N          0.58673000       0.18482000       0.38810700
    66  N          0.41327000       0.68482000       0.11189300
    67  N          0.41327000       0.81518000       0.61189300
    68  N          0.58673000       0.31518000       0.88810700
    69  C          0.10494000       0.36043000       0.43564900
    70  C          0.89506000       0.86043000       0.06435100
    71  C          0.89506000       0.63957000       0.56435100
    72  C          0.10494000       0.13957000       0.93564900
    73  H          0.13594000       0.32433000       0.47149900
    74  H          0.86406000       0.82433000       0.02850100
    75  H          0.86406000       0.67567000       0.52850100
    76  H          0.13594000       0.17567000       0.97149900
    77  H          0.97076000       0.30503000       0.42198900
    78  H          0.02924000       0.80503000       0.07801100
    79  H          0.02924000       0.69497000       0.57801100
    80  H          0.97076000       0.19497000       0.92198900
    81  C          0.06623000       0.54422000       0.43503700
    82  C          0.93377000       0.04422000       0.06496300
    83  C          0.93377000       0.45578000       0.56496300
    84  C          0.06623000       0.95578000       0.93503700
    85  C          0.86157000       0.60773000       0.41744800
    86  C          0.13843000       0.10773000       0.08255200
    87  C          0.13843000       0.39227000       0.58255200
    88  C          0.86157000       0.89227000       0.91744800
    89  H          0.74947000       0.53653000       0.40486800
    90  H          0.25053000       0.03653000       0.09513200
    91  H          0.25053000       0.46347000       0.59513200
    92  H          0.74947000       0.96347000       0.90486800
    93  C          0.82236000       0.77603000       0.41843900
    94  C          0.17764000       0.27603000       0.08156100
    95  C          0.17764000       0.22397000       0.58156100
    96  C          0.82236000       0.72397000       0.91843900
    97  H          0.68406000       0.81733000       0.40684900
    98  H          0.31594000       0.31733000       0.09315100
    99  H          0.31594000       0.18267000       0.59315100
   100  H          0.68406000       0.68267000       0.90684900
   101  C         -0.01274000       0.88183000       0.43649900
   102  C          0.01274000       0.38183000       0.06350100
   103  C          0.01274000       0.11817000       0.56350100
   104  C         -0.01274000       0.61817000       0.93649900
   105  H          0.96106000      -0.00497000       0.43683900
   106  H          0.03894000       0.49503000       0.06316100
   107  H          0.03894000       0.00497000       0.56316100
   108  H          0.96106000       0.50497000       0.93683900
   109  C          0.19254000       0.82083000       0.45419100
   110  C          0.80746000       0.32083000       0.04580900
   111  C          0.80746000       0.17917000       0.54580900
   112  C          0.19254000       0.67917000       0.95419100
   113  H          0.30434000       0.89273000       0.46648100
   114  H          0.69566000       0.39273000       0.03351900
   115  H          0.69566000       0.10727000       0.53351900
   116  H          0.30434000       0.60727000       0.96648100
   117  C          0.23053000       0.65263000       0.45350900
   118  C          0.76947000       0.15263000       0.04649100
   119  C          0.76947000       0.34737000       0.54649100
   120  C          0.23053000       0.84737000       0.95350900
   121  H          0.36833000       0.61163000       0.46563900
   122  H          0.63167000       0.11163000       0.03436100
   123  H          0.63167000       0.38837000       0.53436100
   124  H          0.36833000       0.88837000       0.96563900
