data_NILLEZ03
_symmetry_space_group_name_H-M    'P1'
_symmetry_Int_Tables_number       1
loop_
_symmetry_equiv_pos_site_id
_symmetry_equiv_pos_as_xyz
1 x,y,z
_cell_length_a                   7.97496
_cell_length_b                   5.76074
_cell_length_c                   13.76689
_cell_angle_alpha                90.0
_cell_angle_beta                 100.3617
_cell_angle_gamma                90.0
loop_
_atom_site_label
_atom_site_type_symbol
_atom_site_fract_x
_atom_site_fract_y
_atom_site_fract_z
     1  N          0.54062000       0.23983000       0.33407120
     2  N          0.45938000       0.73983000       0.66592880
     3  N          0.50062000       0.02393000       0.35962130
     4  N          0.49938000       0.52393000       0.64037870
     5  N          0.42122000       0.92187000       0.27836130
     6  N          0.57878000       0.42187000       0.72163870
     7  C          0.41112000       0.07063000       0.20167150
     8  C          0.58888000       0.57063000       0.79832850
     9  C          0.48743000       0.27384000       0.23777150
    10  C          0.51257000       0.77384000       0.76222850
    11  H          0.49960000       0.40820000       0.20220000
    12  H          0.50040000       0.90820000       0.79780000
    13  C          0.63683000       0.39614000       0.40731160
    14  C          0.36317000       0.89614000       0.59268840
    15  H          0.64580000       0.32810000       0.47250000
    16  H          0.35420000       0.82810000       0.52750000
    17  H          0.57610000       0.54220000       0.40700000
    18  H          0.42390000       0.04220000       0.59300000
    19  C          0.81272000       0.44103000       0.38613140
    20  C          0.18728000       0.94103000       0.61386860
    21  C          0.93983000       0.27674000       0.40777140
    22  C          0.06017000       0.77674000       0.59222860
    23  H          0.91710000       0.13660000       0.43640000
    24  H          0.08290000       0.63660000       0.56360000
    25  C          0.09983000       0.31824000       0.38730160
    26  C          0.90017000       0.81824000       0.61269840
    27  H          0.18440000       0.20590000       0.40200000
    28  H          0.81560000       0.70590000       0.59800000
    29  C          0.13553000       0.52514000       0.34509160
    30  C          0.86447000       0.02514000       0.65490840
    31  H          0.24370000       0.55290000       0.33140000
    32  H          0.75630000       0.05290000       0.66860000
    33  C          0.01063000       0.68924000       0.32347160
    34  C         -0.01063000       0.18924000       0.67652840
    35  H          0.03400000       0.82910000       0.29490000
    36  H          0.96600000       0.32910000       0.70510000
    37  C          0.85023000       0.64864000       0.34378150
    38  C          0.14977000       0.14864000       0.65621850
    39  H          0.76620000       0.76160000       0.32890000
    40  H          0.23380000       0.26160000       0.67110000
    41  C          0.32842000       0.01023000       0.10062160
    42  C          0.67158000       0.51023000       0.89937840
    43  C          0.23503000       0.80726000       0.08074170
    44  C          0.76497000       0.30726000       0.91925830
    45  H          0.22360000       0.70720000       0.13220000
    46  H          0.77640000       0.20720000       0.86780000
    47  C          0.15903000       0.75266000       0.98576830
    48  C          0.84097000       0.25266000       0.01423170
    49  H          0.09710000       0.61570000       0.97350000
    50  H          0.90290000       0.11570000       0.02650000
    51  C          0.17373000       0.89865000       0.90885820
    52  C          0.82627000       0.39865000       0.09114180
    53  H          0.12210000       0.86130000       0.84470000
    54  H          0.87790000       0.36130000       0.15530000
    55  C          0.26573000       0.10114000       0.92775820
    56  C          0.73427000       0.60114000       0.07224180
    57  H          0.27530000       0.20170000       0.87620000
    58  H          0.72470000       0.70170000       0.12380000
    59  C          0.34343000       0.15494000       0.02245150
    60  C          0.65657000       0.65494000       0.97754850
    61  H          0.40700000       0.29060000       0.03410000
    62  H          0.59300000       0.79060000       0.96590000
