data_NILLEZ09
_symmetry_space_group_name_H-M    'P1'
_symmetry_Int_Tables_number       1
loop_
_symmetry_equiv_pos_site_id
_symmetry_equiv_pos_as_xyz
1 x,y,z
_cell_length_a                   14.909313
_cell_length_b                   5.77485
_cell_length_c                   14.964113
_cell_angle_alpha                90.0
_cell_angle_beta                 110.8114
_cell_angle_gamma                90.0
loop_
_atom_site_label
_atom_site_type_symbol
_atom_site_fract_x
_atom_site_fract_y
_atom_site_fract_z
     1  N          0.12245900       0.52252000       0.43272900
     2  N          0.37754100       0.02252000       0.06727100
     3  N          0.87754100       0.47748000       0.56727100
     4  N          0.62245900      -0.02252000       0.93272900
     5  N          0.10916900       0.29342000       0.41634900
     6  N          0.39083100       0.79342000       0.08365100
     7  N          0.89083100       0.70658000       0.58365100
     8  N          0.60916900       0.20658000       0.91634900
     9  N          0.10810900       0.19862000       0.49624900
    10  N          0.39189100       0.69862000       0.00375100
    11  N          0.89189100       0.80138000       0.50375100
    12  N          0.60810900       0.30138000      -0.00375100
    13  C          0.12118100       0.36792000       0.56329100
    14  C          0.37881900       0.86792000       0.93670900
    15  C          0.87881900       0.63208000       0.43670900
    16  C          0.62118100       0.13208000       0.06329100
    17  C          0.13032100       0.57553000       0.52271100
    18  C          0.36967900       0.07553000       0.97728900
    19  C          0.86967900       0.42447000       0.47728900
    20  C          0.63032100       0.92447000       0.02271100
    21  H          0.14007200       0.72417200       0.55181700
    22  H          0.35992800       0.22417200       0.94818300
    23  H          0.85992800       0.27582800       0.44818300
    24  H          0.64007200       0.77582800       0.05181700
    25  C          0.12260100       0.31492000       0.65973100
    26  C          0.37739900       0.81492000       0.84026900
    27  C          0.87739900       0.68508000       0.34026900
    28  C          0.62260100       0.18508000       0.15973100
    29  C          0.08687100       0.10343000       0.67799110
    30  C          0.41312900       0.60343000       0.82200890
    31  C          0.91312900       0.89657000       0.32200890
    32  C          0.58687100       0.39657000       0.17799110
    33  H          0.06084200      -0.00493200       0.62761600
    34  H          0.43915800       0.49506800       0.87238400
    35  H          0.93915800       0.00493200       0.37238400
    36  H          0.56084200       0.50493200       0.12761600
    37  C          0.08920110       0.05093000       0.76911110
    38  C          0.41079890       0.55093000       0.73088890
    39  C          0.91079890       0.94907000       0.23088890
    40  C          0.58920110       0.44907000       0.26911110
    41  H          0.06537900       0.90606900       0.78101600
    42  H          0.43462100       0.40606900       0.71898400
    43  H          0.93462100       0.09393100       0.21898400
    44  H          0.56537900       0.59393100       0.28101600
    45  C          0.12613110       0.20873000       0.84313110
    46  C          0.37386890       0.70873000       0.65686890
    47  C          0.87386890       0.79127000       0.15686890
    48  C          0.62613110       0.29127000       0.34313110
    49  H          0.12722700       0.17288400       0.90547200
    50  H          0.37277300       0.67288400       0.59452800
    51  H          0.87277300       0.82711600       0.09452800
    52  H          0.62722700       0.32711600       0.40547200
    53  C          0.16144110       0.41943000       0.82531110
    54  C          0.33855890       0.91943000       0.67468890
    55  C          0.83855890       0.58057000       0.17468890
    56  C          0.66144110       0.08057000       0.32531110
    57  H          0.18667900       0.52804500       0.87572500
    58  H          0.31332100       0.02804500       0.62427500
    59  H          0.81332100       0.47195500       0.12427500
    60  H          0.68667900       0.97195500       0.37572500
    61  C          0.16015100       0.47233000       0.73470110
    62  C          0.33984900       0.97233000       0.76529890
    63  C          0.83984900       0.52767000       0.26529890
    64  C          0.66015100       0.02767000       0.23470110
    65  H          0.18494000       0.61640400       0.72339600
    66  H          0.31506000       0.11640400       0.77660400
    67  H          0.81506000       0.38359600       0.27660400
    68  H          0.68494000       0.88359600       0.22339600
    69  C          0.13358110       0.67483000       0.35931110
    70  C          0.36641890       0.17483000       0.14068890
    71  C          0.86641890       0.32517000       0.64068890
    72  C          0.63358110       0.82517000       0.85931110
    73  H          0.10660900       0.82896200       0.36405400
    74  H          0.39339100       0.32896200       0.13594600
    75  H          0.89339100       0.17103800       0.63594600
    76  H          0.60660900       0.67103800       0.86405400
    77  H          0.09692800       0.61046700       0.29538400
    78  H          0.40307200       0.11046700       0.20461600
    79  H          0.90307200       0.38953300       0.70461600
    80  H          0.59692800       0.88953300       0.79538400
    81  C          0.23775100       0.70153000       0.36945100
    82  C          0.26224900       0.20153000       0.13054900
    83  C          0.76224900       0.29847000       0.63054900
    84  C          0.73775100       0.79847000       0.86945100
    85  C          0.28496110       0.52523000       0.34101110
    86  C          0.21503890       0.02523000       0.15898890
    87  C          0.71503890       0.47477000       0.65898890
    88  C          0.78496110       0.97477000       0.84101110
    89  H          0.25217800       0.38516000       0.31610300
    90  H          0.24782200       0.88516000       0.18389700
    91  H          0.74782200       0.61484000       0.68389700
    92  H          0.75217800       0.11484000       0.81610300
    93  C          0.37996120       0.55303000       0.34885120
    94  C          0.12003880       0.05303000       0.15114880
    95  C          0.62003880       0.44697000       0.65114880
    96  C          0.87996120       0.94697000       0.84885120
    97  H          0.41212300       0.43187000       0.32941400
    98  H          0.08787700       0.93187000       0.17058600
    99  H          0.58787700       0.56813000       0.67058600
   100  H          0.91212300       0.06813000       0.82941400
   101  C          0.42800120       0.75783000       0.38511110
   102  C          0.07199880       0.25783000       0.11488890
   103  C          0.57199880       0.24217000       0.61488890
   104  C          0.92800120       0.74217000       0.88511110
   105  H          0.49297500       0.77683200       0.39039400
   106  H          0.00702500       0.27683200       0.10960600
   107  H          0.50702500       0.22316800       0.60960600
   108  H         -0.00702500       0.72316800       0.89039400
   109  C          0.38120110       0.93383000       0.41350110
   110  C          0.11879890       0.43383000       0.08649890
   111  C          0.61879890       0.06617000       0.58649890
   112  C          0.88120110       0.56617000       0.91350110
   113  H          0.41410500       0.07371400       0.43836500
   114  H          0.08589500       0.57371400       0.06163500
   115  H          0.58589500       0.92628600       0.56163500
   116  H          0.91410500       0.42628600       0.93836500
   117  C          0.28613110       0.90643000       0.40573100
   118  C          0.21386890       0.40643000       0.09426900
   119  C          0.71386890       0.09357000       0.59426900
   120  C          0.78613110       0.59357000       0.90573100
   121  H          0.25411000       0.02775900       0.42519400
   122  H          0.24589000       0.52775900       0.07480600
   123  H          0.74589000       0.97224100       0.57480600
   124  H          0.75411000       0.47224100       0.92519400
