data_NIMFOE
_symmetry_space_group_name_H-M    'P1'
_symmetry_Int_Tables_number       1
loop_
_symmetry_equiv_pos_site_id
_symmetry_equiv_pos_as_xyz
1 x,y,z
_cell_length_a                   5.8731
_cell_length_b                   9.6931
_cell_length_c                   10.45619
_cell_angle_alpha                90.0
_cell_angle_beta                 104.071
_cell_angle_gamma                90.0
loop_
_atom_site_label
_atom_site_type_symbol
_atom_site_fract_x
_atom_site_fract_y
_atom_site_fract_z
     1  O          0.71372000       0.09601000       0.96674900
     2  O          0.78628000       0.59601000       0.53325100
     3  O          0.28628000       0.90399000       0.03325100
     4  O          0.21372000       0.40399000       0.46674900
     5  O          0.71342000       0.95719000       0.38079100
     6  O          0.78658000       0.45719000       0.11920900
     7  O          0.28658000       0.04281000       0.61920900
     8  O          0.21342000       0.54281000       0.88079100
     9  O          0.11092000       0.22761000       0.94479000
    10  O          0.38908000       0.72761000       0.55521000
    11  O          0.88908000       0.77239000       0.05521000
    12  O          0.61092000       0.27239000       0.44479000
    13  O          0.35602000       0.28922000       0.12331000
    14  O          0.14398000       0.78922000       0.37669000
    15  O          0.64398000       0.71078000       0.87669000
    16  O          0.85602000       0.21078000       0.62331000
    17  N          0.71802000       0.03241000       0.17531000
    18  N          0.78198000       0.53241000       0.32469000
    19  N          0.28198000       0.96759000       0.82469000
    20  N          0.21802000       0.46759000       0.67531000
    21  N          0.01882000       0.08961000       0.35391000
    22  N          0.48118000       0.58961000       0.14609000
    23  N         -0.01882000       0.91039000       0.64609000
    24  N          0.51882000       0.41039000       0.85391000
    25  N          0.17502000       0.23171000       0.06501000
    26  N          0.32498000       0.73171000       0.43499000
    27  N          0.82498000       0.76829000       0.93499000
    28  N          0.67502000       0.26829000       0.56501000
    29  C          0.81592000       0.09791000       0.08331000
    30  C          0.68408000       0.59791000       0.41669000
    31  C          0.18408000       0.90209000       0.91669000
    32  C          0.31592000       0.40209000       0.58331000
    33  C          0.80872000       0.02181000       0.30851000
    34  C          0.69128000       0.52181000       0.19149000
    35  C          0.19128000       0.97819000       0.69149000
    36  C          0.30872000       0.47819000       0.80851000
    37  C          0.12903000       0.15611000       0.27471000
    38  C          0.37097000       0.65611000       0.22529000
    39  C          0.87097000       0.84389000       0.72529000
    40  C          0.62903000       0.34389000       0.77471000
    41  C          0.03892000       0.16211000       0.14281000
    42  C          0.46108000       0.66211000       0.35719000
    43  C          0.96108000       0.83789000       0.85719000
    44  C          0.53892000       0.33789000       0.64281000
    45  H          0.58140000      -0.00920000       0.14120000
    46  H          0.91860000       0.49080000       0.35880000
    47  H          0.41860000       0.00920000       0.85880000
    48  H          0.08140000       0.50920000       0.64120000
    49  H          0.08340000       0.08320000       0.43920000
    50  H          0.41660000       0.58320000       0.06080000
    51  H          0.91660000       0.91680000       0.56080000
    52  H          0.58340000       0.41680000       0.93920000
    53  H          0.27030000       0.20020000       0.31720000
    54  H          0.22970000       0.70020000       0.18280000
    55  H          0.72970000       0.79980000       0.68280000
    56  H          0.77030000       0.29980000       0.81720000
