data_NIMFOE02
_symmetry_space_group_name_H-M    'P1'
_symmetry_Int_Tables_number       1
loop_
_symmetry_equiv_pos_site_id
_symmetry_equiv_pos_as_xyz
1 x,y,z
_cell_length_a                   5.434201
_cell_length_b                   9.840601
_cell_length_c                   10.365901
_cell_angle_alpha                90.0
_cell_angle_beta                 90.0
_cell_angle_gamma                90.0
loop_
_atom_site_label
_atom_site_type_symbol
_atom_site_fract_x
_atom_site_fract_y
_atom_site_fract_z
     1  O          0.31342000       0.30782100       0.36303800
     2  O          0.18658000       0.69217900       0.86303800
     3  O          0.68658000       0.80782100       0.13696200
     4  O          0.81342000       0.19217900       0.63696200
     5  O          0.65332000       0.15644100      -0.00902700
     6  O          0.84668000       0.84355900       0.49097300
     7  O          0.34668000       0.65644100       0.50902700
     8  O          0.15332000       0.34355900       0.00902700
     9  O          0.08932000       0.01520110       0.02057100
    10  O          0.41068000       0.98479890       0.52057100
    11  O          0.91068000       0.51520110       0.47942900
    12  O          0.58932000       0.48479890       0.97942900
    13  O          0.21372000       0.97645890       0.21624110
    14  O          0.28628000       0.02354110       0.71624110
    15  O          0.78628000       0.47645890       0.28375890
    16  O          0.71372000       0.52354110       0.78375890
    17  N          0.50372000       0.23830900       0.17854800
    18  N         -0.00372000       0.76169100       0.67854800
    19  N          0.49628000       0.73830900       0.32145200
    20  N          0.00372000       0.26169100       0.82145200
    21  H          0.37622000       0.28901900       0.12650800
    22  H          0.12378000       0.71098100       0.62650800
    23  H          0.62378000       0.78901900       0.37349200
    24  H          0.87622000       0.21098100       0.87349200
    25  N          0.67512000       0.18942100       0.37747800
    26  N          0.82488000       0.81057900       0.87747800
    27  N          0.32488000       0.68942100       0.12252200
    28  N          0.17512000       0.31057900       0.62252200
    29  H          0.67712000       0.19865100       0.47451800
    30  H          0.82288000       0.80134900       0.97451800
    31  H          0.32288000       0.69865100       0.02548200
    32  H          0.17712000       0.30134900       0.52548200
    33  N          0.06832000       0.02708100       0.13824100
    34  N          0.43168000       0.97291900       0.63824100
    35  N          0.93168000       0.52708100       0.36175900
    36  N          0.56832000       0.47291900       0.86175900
    37  C          0.48622000       0.24967100       0.30958900
    38  C          0.01378000       0.75032900       0.80958900
    39  C          0.51378000       0.74967100       0.19041100
    40  C         -0.01378000       0.25032900       0.69041100
    41  C          0.67702000       0.16498110       0.10861900
    42  C          0.82298000       0.83501890       0.60861900
    43  C          0.32298000       0.66498110       0.39138100
    44  C          0.17702000       0.33501890       0.89138100
    45  C          0.86662000       0.10519110       0.18972100
    46  C          0.63338000       0.89480890       0.68972100
    47  C          0.13338000       0.60519110       0.31027900
    48  C          0.36662000       0.39480890       0.81027900
    49  C          0.85632000       0.11910110       0.32035100
    50  C          0.64368000       0.88089890       0.82035100
    51  C          0.14368000       0.61910110       0.17964900
    52  C          0.35632000       0.38089890       0.67964900
    53  H         -0.00348000       0.07270110       0.37896100
    54  H          0.50348000       0.92729890       0.87896100
    55  H          0.00348000       0.57270110       0.12103900
    56  H          0.49652000       0.42729890       0.62103900
