data_NIMFOE01
_symmetry_space_group_name_H-M    'P1'
_symmetry_Int_Tables_number       1
loop_
_symmetry_equiv_pos_site_id
_symmetry_equiv_pos_as_xyz
1 x,y,z
_cell_length_a                   8.3083
_cell_length_b                   10.4263
_cell_length_c                   13.3634
_cell_angle_alpha                90.0
_cell_angle_beta                 90.0
_cell_angle_gamma                90.0
loop_
_atom_site_label
_atom_site_type_symbol
_atom_site_fract_x
_atom_site_fract_y
_atom_site_fract_z
     1  O          0.93872900       0.34912700       0.56144500
     2  O          0.56127100       0.65087300       0.06144500
     3  O          0.06127100       0.84912700       0.93855500
     4  O          0.43872900       0.15087300       0.43855500
     5  O          0.06127100       0.65087300       0.43855500
     6  O          0.43872900       0.34912700       0.93855500
     7  O          0.93872900       0.15087300       0.06144500
     8  O          0.56127100       0.84912700       0.56144500
     9  O          0.09097110      -0.00051700       0.38116600
    10  O          0.40902890       0.00051700       0.88116600
    11  O          0.90902890       0.49948300       0.11883400
    12  O          0.59097110       0.50051700       0.61883400
    13  O          0.90902890       0.00051700       0.61883400
    14  O          0.59097110      -0.00051700       0.11883400
    15  O          0.09097110       0.50051700       0.88116600
    16  O          0.40902890       0.49948300       0.38116600
    17  O          0.23746110       0.25459800       0.15404600
    18  O          0.26253890       0.74540200       0.65404600
    19  O          0.76253890       0.75459800       0.34595400
    20  O          0.73746110       0.24540200       0.84595400
    21  O          0.76253890       0.74540200       0.84595400
    22  O          0.73746110       0.25459800       0.34595400
    23  O          0.23746110       0.24540200       0.65404600
    24  O          0.26253890       0.75459800       0.15404600
    25  O          0.21045120       0.05428800       0.19418600
    26  O          0.28954880       0.94571200       0.69418600
    27  O          0.78954880       0.55428800       0.30581400
    28  O          0.71045120       0.44571200       0.80581400
    29  O          0.78954880       0.94571200       0.80581400
    30  O          0.71045120       0.05428800       0.30581400
    31  O          0.21045120       0.44571200       0.69418600
    32  O          0.28954880       0.55428800       0.19418600
    33  N          0.02324120       0.17632800       0.47069600
    34  N          0.47675880       0.82367200       0.97069600
    35  N          0.97675880       0.67632800       0.02930400
    36  N          0.52324120       0.32367200       0.52930400
    37  N          0.97675880       0.82367200       0.52930400
    38  N          0.52324120       0.17632800       0.02930400
    39  N          0.02324120       0.32367200       0.97069600
    40  N          0.47675880       0.67632800       0.47069600
    41  H         -0.00680120       0.11810800       0.52815600
    42  H          0.50680120       0.88189200       0.02815600
    43  H          0.00680120       0.61810800       0.97184400
    44  H          0.49319880       0.38189200       0.47184400
    45  H          0.00680120       0.88189200       0.47184400
    46  H          0.49319880       0.11810800       0.97184400
    47  H         -0.00680120       0.38189200       0.02815600
    48  H          0.50680120       0.61810800       0.52815600
    49  N          0.05591120       0.38305800       0.40953700
    50  N          0.44408880       0.61694200       0.90953700
    51  N          0.94408880       0.88305800       0.09046300
    52  N          0.55591120       0.11694200       0.59046300
    53  N          0.94408880       0.61694200       0.59046300
    54  N          0.55591120       0.38305800       0.09046300
    55  N          0.05591120       0.11694200       0.90953700
    56  N          0.44408880       0.88305800       0.40953700
    57  H          0.05082120       0.47910800       0.41887700
    58  H          0.44917880       0.52089200       0.91887700
    59  H          0.94917880       0.97910800       0.08112300
    60  H          0.55082120       0.02089200       0.58112300
    61  H          0.94917880       0.52089200       0.58112300
    62  H          0.55082120       0.47910800       0.08112300
    63  H          0.05082120       0.02089200       0.91887700
    64  H          0.44917880       0.97910800       0.41887700
    65  N          0.19624120       0.16917800       0.21289600
    66  N          0.30375880       0.83082200       0.71289600
    67  N          0.80375880       0.66917800       0.28710400
    68  N          0.69624120       0.33082200       0.78710400
    69  N          0.80375880       0.83082200       0.78710400
    70  N          0.69624120       0.16917800       0.28710400
    71  N          0.19624120       0.33082200       0.71289600
    72  N          0.30375880       0.66917800       0.21289600
    73  C          0.00143130       0.30481100       0.48570700
    74  C          0.49856870       0.69518900       0.98570700
    75  C         -0.00143130       0.80481100       0.01429300
    76  C          0.50143130       0.19518900       0.51429300
    77  C         -0.00143130       0.69518900       0.51429300
    78  C          0.50143130       0.30481100       0.01429300
    79  C          0.00143130       0.19518900       0.98570700
    80  C          0.49856870       0.80481100       0.48570700
    81  C          0.08239130       0.11671900       0.38482700
    82  C          0.41760870       0.88328100       0.88482700
    83  C          0.91760870       0.61671900       0.11517300
    84  C          0.58239130       0.38328100       0.61517300
    85  C          0.91760870       0.88328100       0.61517300
    86  C          0.58239130       0.11671900       0.11517300
    87  C          0.08239130       0.38328100       0.88482700
    88  C          0.41760870       0.61671900       0.38482700
    89  C          0.12782130       0.20816900       0.30738700
    90  C          0.37217870       0.79183100       0.80738700
    91  C          0.87217870       0.70816900       0.19261300
    92  C          0.62782130       0.29183100       0.69261300
    93  C          0.87217870       0.79183100       0.69261300
    94  C          0.62782130       0.20816900       0.19261300
    95  C          0.12782130       0.29183100       0.80738700
    96  C          0.37217870       0.70816900       0.30738700
    97  C          0.11539140       0.33633100       0.32350700
    98  C          0.38460860       0.66366900       0.82350700
    99  C          0.88460860       0.83633100       0.17649300
   100  C          0.61539140       0.16366900       0.67649300
   101  C          0.88460860       0.66366900       0.67649300
   102  C          0.61539140       0.33633100       0.17649300
   103  C          0.11539140       0.16366900       0.82350700
   104  C          0.38460860       0.83633100       0.32350700
   105  H          0.15402140       0.40187100       0.26612700
   106  H          0.34597860       0.59812900       0.76612700
   107  H          0.84597860       0.90187100       0.23387300
   108  H          0.65402140       0.09812900       0.73387300
   109  H          0.84597860       0.59812900       0.73387300
   110  H          0.65402140       0.40187100       0.23387300
   111  H          0.15402140       0.09812900       0.76612700
   112  H          0.34597860       0.90187100       0.26612700
