data_NIZVAU
_symmetry_space_group_name_H-M    'P1'
_symmetry_Int_Tables_number       1
loop_
_symmetry_equiv_pos_site_id
_symmetry_equiv_pos_as_xyz
1 x,y,z
_cell_length_a                   3.795601
_cell_length_b                   11.99333
_cell_length_c                   14.99074
_cell_angle_alpha                90.0
_cell_angle_beta                 90.6313
_cell_angle_gamma                90.0
loop_
_atom_site_label
_atom_site_type_symbol
_atom_site_fract_x
_atom_site_fract_y
_atom_site_fract_z
     1  C          0.18523000       0.15347900       0.47945700
     2  C          0.81477000       0.65347900       0.02054300
     3  C          0.81477000       0.84652100       0.52054300
     4  C          0.18523000       0.34652100       0.97945700
     5  C          0.32953000       0.27552900       0.48397800
     6  C          0.67047000       0.77552900       0.01602200
     7  C          0.67047000       0.72447100       0.51602200
     8  C          0.32953000       0.22447100       0.98397800
     9  C          0.51203000       0.28246100       0.57077700
    10  C          0.48797000       0.78246100       0.92922300
    11  C          0.48797000       0.71753900       0.42922300
    12  C          0.51203000       0.21753900       0.07077700
    13  C          0.67443000       0.37034100       0.61555800
    14  C          0.32557000       0.87034100       0.88444200
    15  C          0.32557000       0.62965900       0.38444200
    16  C          0.67443000       0.12965900       0.11555800
    17  H          0.68740000       0.44391300       0.58751000
    18  H          0.31260000       0.94391300       0.91249000
    19  H          0.31260000       0.55608700       0.41249000
    20  H          0.68740000       0.05608700       0.08751000
    21  C          0.80933000       0.35043110       0.70035800
    22  C          0.19067000       0.85043110       0.79964200
    23  C          0.19067000       0.64956890       0.29964200
    24  C          0.80933000       0.14956890       0.20035800
    25  H          0.92040000       0.40951300       0.73231000
    26  H          0.07960000       0.90951300       0.76769000
    27  H          0.07960000       0.59048700       0.26769000
    28  H          0.92040000       0.09048700       0.23231000
    29  C          0.78393000       0.24575110       0.73956800
    30  C          0.21607000       0.74575110       0.76043200
    31  C          0.21607000       0.75424890       0.26043200
    32  C          0.78393000       0.25424890       0.23956800
    33  H          0.87730000       0.23031100       0.79709000
    34  H          0.12270000       0.73031100       0.70291000
    35  H          0.12270000       0.76968900       0.20291000
    36  H          0.87730000       0.26968900       0.29709000
    37  C          0.61873000       0.15990100       0.69397800
    38  C          0.38127000       0.65990100       0.80602200
    39  C          0.38127000       0.84009900       0.30602200
    40  C          0.61873000       0.34009900       0.19397800
    41  C          0.48193000       0.17749900       0.61011700
    42  C          0.51807000       0.67749900       0.88988300
    43  C          0.51807000       0.82250100       0.38988300
    44  C          0.48193000       0.32250100       0.11011700
    45  N          0.29823000       0.10206800       0.55459600
    46  N          0.70177000       0.60206800       0.94540400
    47  N          0.70177000       0.89793200       0.44540400
    48  N          0.29823000       0.39793200       0.05459600
    49  H          0.22940000       0.03261300       0.56889000
    50  H          0.77060000       0.53261300       0.93111000
    51  H          0.77060000       0.96738700       0.43111000
    52  H          0.22940000       0.46738700       0.06889000
    53  O          0.00082000       0.11499700       0.41978500
    54  O         -0.00082000       0.61499700       0.08021500
    55  O         -0.00082000       0.88500300       0.58021500
    56  O          0.00082000       0.38500300       0.91978500
    57  O          0.28202000       0.34329700       0.42594600
    58  O          0.71798000       0.84329700       0.07405400
    59  O          0.71798000       0.65670300       0.57405400
    60  O          0.28202000       0.15670300       0.92594600
    61  F          0.58972000       0.05786600       0.73123500
    62  F          0.41028000       0.55786600       0.76876500
    63  F          0.41028000       0.94213400       0.26876500
    64  F          0.58972000       0.44213400       0.23123500
