data_NIZVAU01
_symmetry_space_group_name_H-M    'P1'
_symmetry_Int_Tables_number       1
loop_
_symmetry_equiv_pos_site_id
_symmetry_equiv_pos_as_xyz
1 x,y,z
_cell_length_a                   8.120713
_cell_length_b                   8.235115
_cell_length_c                   12.3944
_cell_angle_alpha                70.872
_cell_angle_beta                 85.83417
_cell_angle_gamma                61.02317
loop_
_atom_site_label
_atom_site_type_symbol
_atom_site_fract_x
_atom_site_fract_y
_atom_site_fract_z
     1  C          0.01602000       0.62418000       0.07384120
     2  C          0.98398000       0.37582000       0.92615880
     3  C          0.01412000       0.77018000       0.95432880
     4  C          0.98588000       0.22982000       0.04567120
     5  C          0.84742000       0.96108000       0.94552880
     6  C          0.15258000       0.03892000       0.05447120
     7  C          0.77362000       0.14472000       0.86063870
     8  C          0.22638000       0.85528000       0.13936130
     9  H          0.83720000       0.16220000       0.79108700
    10  H          0.16280000       0.83780000       0.20891300
    11  C          0.61032000       0.29962000       0.87913860
    12  C          0.38968000       0.70038000       0.12086140
    13  H          0.55720000       0.42620000       0.82018600
    14  H          0.44280000       0.57380000       0.17981400
    15  C          0.52532000       0.26982000       0.97975860
    16  C          0.47468000       0.73018000       0.02024140
    17  H          0.41820000       0.37120000      -0.00561300
    18  H          0.58180000       0.62880000       0.00561300
    19  C          0.60252000       0.08532000       0.06331120
    20  C          0.39748000       0.91468000       0.93668880
    21  C          0.76352000       0.92948000       0.04758120
    22  C          0.23648000       0.07052000       0.95241880
    23  N          0.86293170       0.73237830       0.12135110
    24  N          0.13706830       0.26762170       0.87864890
    25  H          0.82920000       0.68380000       0.18831500
    26  H          0.17080000       0.31620000       0.81168500
    27  O          0.13181140       0.45097860       0.11273900
    28  O          0.86818860       0.54902140       0.88726100
    29  O          0.13296140       0.72175850       0.88893100
    30  O          0.86703860       0.27824150       0.11106900
    31  F          0.52009120       0.05606130       0.16176800
    32  F          0.47990880       0.94393870       0.83823200
    33  C          0.76122000       0.39842000       0.38842120
    34  C          0.23878000       0.60158000       0.61157880
    35  C          0.71792000       0.32542000       0.51564120
    36  C          0.28208000       0.67458000       0.48435880
    37  C          0.72802000       0.13652000       0.53032120
    38  C          0.27198000       0.86348000       0.46967880
    39  C          0.70032000       0.00402000       0.62234130
    40  C          0.29968000      -0.00402000       0.37765870
    41  H          0.66420000       0.03120000       0.69371300
    42  H          0.33580000       0.96880000       0.30628700
    43  C          0.72432000       0.83238000       0.60948140
    44  C          0.27568000       0.16762000       0.39051860
    45  H          0.70320000       0.74080000       0.67171400
    46  H          0.29680000       0.25920000       0.32828600
    47  C          0.77692000       0.79388000       0.50745130
    48  C          0.22308000       0.20612000       0.49254870
    49  H          0.79320000       0.67780000       0.49531400
    50  H          0.20680000       0.32220000       0.50468600
    51  C          0.80492000       0.92778000       0.41680130
    52  C          0.19508000       0.07222000       0.58319870
    53  C          0.77830190       0.10022000       0.42680120
    54  C          0.22169810       0.89978000       0.57319880
    55  N          0.79634180       0.25479170       0.34450110
    56  N          0.20365820       0.74520830       0.65549890
    57  H          0.82530000       0.25930000       0.27131600
    58  H          0.17470000       0.74070000       0.72868400
    59  O          0.76273160       0.55234140       0.34164900
    60  O          0.23726840       0.44765860       0.65835100
    61  O          0.68669150       0.41567140       0.58121900
    62  O          0.31330850       0.58432860       0.41878100
    63  F          0.85939130       0.89083880       0.31725700
    64  F          0.14060870       0.10916120       0.68274300
