data_NIZVAU02
_symmetry_space_group_name_H-M    'P1'
_symmetry_Int_Tables_number       1
loop_
_symmetry_equiv_pos_site_id
_symmetry_equiv_pos_as_xyz
1 x,y,z
_cell_length_a                   7.19883
_cell_length_b                   12.76775
_cell_length_c                   14.94687
_cell_angle_alpha                90.0
_cell_angle_beta                 91.7023
_cell_angle_gamma                90.0
loop_
_atom_site_label
_atom_site_type_symbol
_atom_site_fract_x
_atom_site_fract_y
_atom_site_fract_z
     1  C          0.49244000       0.63113000       0.72432000
     2  C          0.00756000       0.13113000       0.27568000
     3  C          0.50756000       0.36887000       0.27568000
     4  C         -0.00756000       0.86887000       0.72432000
     5  C          0.52034000       0.51073000       0.73612000
     6  C          0.97966000       0.01073000       0.26388000
     7  C          0.47966000       0.48927000       0.26388000
     8  C          0.02034000      -0.01073000       0.73612000
     9  C          0.43234000       0.48573000       0.82042000
    10  C          0.06766000       0.98573000       0.17958000
    11  C          0.56766000       0.51427000       0.17958000
    12  C          0.93234000       0.01427000       0.82042000
    13  C          0.41235000       0.39313000       0.86693000
    14  C          0.08765000       0.89313000       0.13307000
    15  C          0.58765000       0.60687000       0.13307000
    16  C          0.91235000       0.10687000       0.86693000
    17  H          0.46140000       0.33230000       0.84830000
    18  H          0.03860000       0.83230000       0.15170000
    19  H          0.53860000       0.66770000       0.15170000
    20  H          0.96140000       0.16770000       0.84830000
    21  C          0.31815000       0.39534000       0.94643000
    22  C          0.18185000       0.89534000       0.05357000
    23  C          0.68185000       0.60466000       0.05357000
    24  C          0.81815000       0.10466000       0.94643000
    25  H          0.30640000       0.33030000       0.97620000
    26  H          0.19360000       0.83030000       0.02380000
    27  H          0.69360000       0.66970000       0.02380000
    28  H          0.80640000       0.16970000       0.97620000
    29  C          0.24645000       0.48733000       0.97793000
    30  C          0.25355000       0.98733000       0.02207000
    31  C          0.75355000       0.51267000       0.02207000
    32  C          0.74645000       0.01267000       0.97793000
    33  H          0.17460000       0.49130000       0.02930000
    34  H          0.32540000      -0.00870000       0.97070000
    35  H          0.82540000       0.50870000       0.97070000
    36  H          0.67460000       0.00870000       0.02930000
    37  C          0.26815000       0.57883000       0.93152000
    38  C          0.23185000       0.07883000       0.06848000
    39  C          0.73185000       0.42117000       0.06848000
    40  C          0.76815000       0.92117000       0.93152000
    41  C          0.36164000       0.57943000       0.85222000
    42  C          0.13836000       0.07943000       0.14778000
    43  C          0.63836000       0.42057000       0.14778000
    44  C          0.86164000       0.92057000       0.85222000
    45  N          0.39794000       0.66342000       0.79622000
    46  N          0.10206000       0.16342000       0.20378000
    47  N          0.60206000       0.33658000       0.20378000
    48  N          0.89794000       0.83658000       0.79622000
    49  H          0.37150000       0.72730000       0.80320000
    50  H          0.12850000       0.22730000       0.19680000
    51  H          0.62850000       0.27270000       0.19680000
    52  H          0.87150000       0.77270000       0.80320000
    53  O          0.54853000       0.68334190       0.66349170
    54  O          0.95147000       0.18334190       0.33650830
    55  O          0.45147000       0.31665810       0.33650830
    56  O          0.04853000       0.81665810       0.66349170
    57  O          0.60073000       0.45702000       0.68425170
    58  O          0.89927000       0.95702000       0.31574830
    59  O          0.39927000       0.54298000       0.31574830
    60  O          0.10073000       0.04298000       0.68425170
    61  F          0.19613000       0.66933180       0.96125150
    62  F          0.30387000       0.16933180       0.03874850
    63  F          0.80387000       0.33066820       0.03874850
    64  F          0.69613000       0.83066820       0.96125150
    65  C          0.55734000       0.05903000       0.24072000
    66  C          0.94266000       0.55903000       0.75928000
    67  C          0.44266000       0.94097000       0.75928000
    68  C          0.05734000       0.44097000       0.24072000
    69  C          0.52374000       0.93893000       0.23732000
    70  C          0.97626000       0.43893000       0.76268000
    71  C          0.47626000       0.06107000       0.76268000
    72  C          0.02374000       0.56107000       0.23732000
    73  C          0.42104000       0.91473000       0.31802000
    74  C          0.07896000       0.41473000       0.68198000
    75  C          0.57896000       0.08527000       0.68198000
    76  C          0.92104000       0.58527000       0.31802000
    77  C          0.34875000       0.82393000       0.35123000
    78  C          0.15125000       0.32393000       0.64877000
    79  C          0.65125000       0.17607000       0.64877000
    80  C          0.84875000       0.67607000       0.35123000
    81  H          0.36940000       0.76430000       0.32120000
    82  H          0.13060000       0.26430000       0.67880000
    83  H          0.63060000       0.23570000       0.67880000
    84  H          0.86940000       0.73570000       0.32120000
    85  C          0.25355000       0.82773000       0.43043000
    86  C          0.24645000       0.32773000       0.56957000
    87  C          0.74645000       0.17227000       0.56957000
    88  C          0.75355000       0.67227000       0.43043000
    89  H          0.20440000       0.76620000       0.44891900
    90  H          0.29560000       0.26620000       0.55108100
    91  H          0.79560000       0.23380000       0.55108100
    92  H          0.70440000       0.73380000       0.44891900
    93  C          0.23065000       0.92133000       0.47463000
    94  C          0.26935000       0.42133000       0.52537000
    95  C          0.76935000       0.07867000       0.52537000
    96  C          0.73065000       0.57867000       0.47463000
    97  H          0.16650000       0.92630000       0.52830000
    98  H          0.33350000       0.42630000       0.47170000
    99  H          0.83350000       0.07370000       0.47170000
   100  H          0.66650000       0.57370000       0.52830000
   101  C          0.30324000       0.01163000       0.44042000
   102  C          0.19676000       0.51163000       0.55958000
   103  C          0.69676000       0.98837000       0.55958000
   104  C          0.80324000       0.48837000       0.44042000
   105  C          0.39854000       0.00963000       0.36192000
   106  C          0.10146000       0.50963000       0.63808000
   107  C          0.60146000      -0.00963000       0.63808000
   108  C          0.89854000       0.49037000       0.36192000
   109  N          0.48014000       0.09252000       0.31649190
   110  N          0.01986000       0.59252000       0.68350810
   111  N          0.51986000       0.90748000       0.68350810
   112  N         -0.01986000       0.40748000       0.31649190
   113  H          0.46840000       0.16230000       0.33220000
   114  H          0.03160000       0.66230000       0.66780000
   115  H          0.53160000       0.83770000       0.66780000
   116  H          0.96840000       0.33770000       0.33220000
   117  O          0.63753000       0.11093190       0.18581160
   118  O          0.86247000       0.61093190       0.81418840
   119  O          0.36247000       0.88906810       0.81418840
   120  O          0.13753000       0.38906810       0.18581160
   121  O          0.57683000       0.88392000       0.17793170
   122  O          0.92317000       0.38392000       0.82206830
   123  O          0.42317000       0.11608000       0.82206830
   124  O          0.07683000       0.61608000       0.17793170
   125  F          0.28043000       0.10365170       0.48246140
   126  F          0.21957000       0.60365170       0.51753860
   127  F          0.71957000       0.89634830       0.51753860
   128  F          0.78043000       0.39634830       0.48246140
