data_NOQCIF
_symmetry_space_group_name_H-M    'P1'
_symmetry_Int_Tables_number       1
loop_
_symmetry_equiv_pos_site_id
_symmetry_equiv_pos_as_xyz
1 x,y,z
_cell_length_a                   10.0803
_cell_length_b                   25.3225
_cell_length_c                   10.7092
_cell_angle_alpha                90.0
_cell_angle_beta                 94.413
_cell_angle_gamma                90.0
loop_
_atom_site_label
_atom_site_type_symbol
_atom_site_fract_x
_atom_site_fract_y
_atom_site_fract_z
     1  P          0.74871000      -0.00191000       0.21821000
     2  P          0.75129000       0.49809000       0.28179000
     3  P          0.25129000       0.00191000       0.78179000
     4  P          0.24871000       0.50191000       0.71821000
     5  O          0.75322000       0.93989000       0.21012000
     6  O          0.74678000       0.43989000       0.28988000
     7  O          0.24678000       0.06011000       0.78988000
     8  O          0.25322000       0.56011000       0.71012000
     9  O          0.58762000       0.04741000       0.00202000
    10  O          0.91238000       0.54741000       0.49798000
    11  O          0.41238000       0.95259000      -0.00202000
    12  O          0.08762000       0.45259000       0.50202000
    13  O          0.02312000       0.04351000       0.22122000
    14  O          0.47688000       0.54351000       0.27878000
    15  O          0.97688000       0.95649000       0.77878000
    16  O          0.52312000       0.45649000       0.72122000
    17  O          0.63152000       0.03321000       0.45202000
    18  O          0.86848000       0.53321000       0.04798000
    19  O          0.36848000       0.96679000       0.54798000
    20  O          0.13152000       0.46679000       0.95202000
    21  C          0.59643000       0.03041000       0.22503000
    22  C          0.90357000       0.53041000       0.27497000
    23  C          0.40357000       0.96959000       0.77497000
    24  C          0.09643000       0.46959000       0.72503000
    25  C          0.55213000       0.04361000       0.34163000
    26  C          0.94787000       0.54361000       0.15837000
    27  C          0.44787000       0.95639000       0.65837000
    28  C          0.05213000       0.45639000       0.84163000
    29  C          0.43184000       0.06892000       0.34793000
    30  C          0.06816000       0.56892000       0.15207000
    31  C          0.56816000       0.93108000       0.65207000
    32  C          0.93184000       0.43108000       0.84793000
    33  C          0.36024000       0.08252000       0.23683000
    34  C          0.13976000       0.58252000       0.26317000
    35  C          0.63976000       0.91748000       0.76317000
    36  C          0.86024000       0.41748000       0.73683000
    37  C          0.40863000       0.07462000       0.12033000
    38  C          0.09137000       0.57462000       0.37967000
    39  C          0.59137000       0.92538000       0.87967000
    40  C          0.90863000       0.42538000       0.62033000
    41  C          0.53063000       0.05041000       0.11643000
    42  C          0.96937000       0.55041000       0.38357000
    43  C          0.46937000       0.94959000       0.88357000
    44  C          0.03063000       0.44959000       0.61643000
    45  C          0.81103000       0.03531000       0.09903000
    46  C          0.68897000       0.53531000       0.40097000
    47  C          0.18897000       0.96469000       0.90097000
    48  C          0.31103000       0.46469000       0.59903000
    49  C          0.72553000       0.05321000       0.00013000
    50  C          0.77447000       0.55321000       0.49987000
    51  C          0.27447000       0.94679000      -0.00013000
    52  C          0.22553000       0.44679000       0.50013000
    53  C          0.77603000       0.07791000       0.89997000
    54  C          0.72397000       0.57791000       0.60003000
    55  C          0.22397000       0.92209000       0.10003000
    56  C          0.27603000       0.42209000       0.39997000
    57  C          0.91233000       0.08761000       0.90587000
    58  C          0.58767000       0.58761000       0.59413000
    59  C          0.08767000       0.91239000       0.09413000
    60  C          0.41233000       0.41239000       0.40587000
    61  C         -0.00307000       0.07631000       0.01103000
    62  C          0.50307000       0.57631000       0.48897000
    63  C          0.00307000       0.92369000      -0.01103000
    64  C          0.49693000       0.42369000       0.51103000
    65  C          0.94293000       0.05131000       0.10963000
    66  C          0.55707000       0.55131000       0.39037000
    67  C          0.05707000       0.94869000       0.89037000
    68  C          0.44293000       0.44869000       0.60963000
    69  C          0.83443000       0.02931000       0.34533000
    70  C          0.66557000       0.52931000       0.15467000
    71  C          0.16557000       0.97069000       0.65467000
    72  C          0.33443000       0.47069000       0.84533000
    73  C          0.96393000       0.04711000       0.33513000
    74  C          0.53607000       0.54711000       0.16487000
    75  C          0.03607000       0.95289000       0.66487000
    76  C          0.46393000       0.45289000       0.83513000
    77  C          0.03493000       0.06891000       0.43723000
    78  C          0.46507000       0.56891000       0.06277000
    79  C          0.96507000       0.93109000       0.56277000
    80  C          0.53493000       0.43109000       0.93723000
    81  C          0.97174000       0.07432000       0.54703000
    82  C          0.52826000       0.57432000       0.95297000
    83  C          0.02826000       0.92568000       0.45297000
    84  C          0.47174000       0.42568000       0.04703000
    85  C          0.83794000       0.06292000       0.55543000
    86  C          0.66206000       0.56292000       0.94457000
    87  C          0.16206000       0.93708000       0.44457000
    88  C          0.33794000       0.43708000       0.05543000
    89  C          0.76863000       0.04171000       0.45083000
    90  C          0.73137000       0.54171000       0.04917000
    91  C          0.23137000       0.95829000       0.54917000
    92  C          0.26863000       0.45829000       0.95083000
    93  H          0.39944000       0.07672000       0.42483000
    94  H          0.10056000       0.57672000       0.07517000
    95  H          0.60056000       0.92328000       0.57517000
    96  H          0.89944000       0.42328000       0.92483000
    97  H          0.27654000       0.09762000       0.24043000
    98  H          0.22346000       0.59762000       0.25957000
    99  H          0.72346000       0.90238000       0.75957000
   100  H          0.77654000       0.40238000       0.74043000
   101  H          0.36013000       0.08522000       0.04723000
   102  H          0.13987000       0.58522000       0.45277000
   103  H          0.63987000       0.91478000       0.95277000
   104  H          0.86013000       0.41478000       0.54723000
   105  H          0.72093000       0.08791000       0.83037000
   106  H          0.77907000       0.58791000       0.66963000
   107  H          0.27907000       0.91209000       0.16963000
   108  H          0.22093000       0.41209000       0.33037000
   109  H          0.94823000       0.10231000       0.83637000
   110  H          0.55177000       0.60231000       0.66363000
   111  H          0.05177000       0.89769000       0.16363000
   112  H          0.44823000       0.39769000       0.33637000
   113  H          0.08663000       0.08521000       0.01483000
   114  H          0.41337000       0.58521000       0.48517000
   115  H          0.91337000       0.91479000       0.98517000
   116  H          0.58663000       0.41479000       0.51483000
   117  H          0.12273000       0.07961000       0.43273000
   118  H          0.37727000       0.57961000       0.06727000
   119  H          0.87727000       0.92039000       0.56727000
   120  H          0.62273000       0.42039000       0.93273000
   121  H          0.02134000       0.08622000       0.61833000
   122  H          0.47866000       0.58622000       0.88167000
   123  H          0.97866000       0.91378000       0.38167000
   124  H          0.52134000       0.41378000       0.11833000
   125  H          0.79664000       0.06922000       0.62873000
   126  H          0.70336000       0.56922000       0.87127000
   127  H          0.20336000       0.93078000       0.37127000
   128  H          0.29664000       0.43078000       0.12873000
   129  P          0.26791000       0.24851000       0.40541000
   130  P          0.23209000       0.74851000       0.09459000
   131  P          0.73209000       0.75149000       0.59459000
   132  P          0.76791000       0.25149000       0.90541000
   133  O          0.23762000       0.19161000       0.41093000
   134  O          0.26238000       0.69161000       0.08907000
   135  O          0.76238000       0.80839000       0.58907000
   136  O          0.73762000       0.30839000       0.91093000
   137  O          0.52322000       0.27831000       0.55432000
   138  O          0.97678000       0.77831000       0.94568000
   139  O          0.47678000       0.72169000       0.44568000
   140  O          0.02322000       0.22169000       0.05432000
   141  O          0.05152000       0.31111000       0.51132000
   142  O          0.44848000       0.81111000      -0.01132000
   143  O          0.94848000       0.68889000       0.48868000
   144  O          0.55152000       0.18889000       0.01132000
   145  O          0.29212000       0.28511000       0.14302000
   146  O          0.20788000       0.78511000       0.35698000
   147  O          0.70788000       0.71489000       0.85698000
   148  O          0.79212000       0.21489000       0.64302000
   149  C          0.41453000       0.27001000       0.34423000
   150  C          0.08547000       0.77001000       0.15577000
   151  C          0.58547000       0.72999000       0.65577000
   152  C          0.91453000       0.22999000       0.84423000
   153  C          0.41243000       0.28441000       0.21883000
   154  C          0.08757000       0.78441000       0.28117000
   155  C          0.58757000       0.71559000       0.78117000
   156  C          0.91243000       0.21559000       0.71883000
   157  C          0.52733000       0.30041000       0.16774000
   158  C          0.97267000       0.80041000       0.33226000
   159  C          0.47267000       0.69959000       0.83226000
   160  C          0.02733000       0.19959000       0.66774000
   161  C          0.64204000       0.30481000       0.24814000
   162  C          0.85796000       0.80481000       0.25186000
   163  C          0.35796000       0.69519000       0.75186000
   164  C          0.14204000       0.19519000       0.74814000
   165  C          0.64373000       0.29641000       0.37604000
   166  C          0.85627000       0.79641000       0.12396000
   167  C          0.35627000       0.70359000       0.62396000
   168  C          0.14373000       0.20359000       0.87604000
   169  C          0.52633000       0.28101000       0.42453000
   170  C          0.97367000       0.78101000       0.07547000
   171  C          0.47367000       0.71899000       0.57547000
   172  C          0.02633000       0.21899000       0.92453000
   173  C          0.28253000       0.28451000       0.54473000
   174  C          0.21747000       0.78451000       0.95527000
   175  C          0.71747000       0.71549000       0.45527000
   176  C          0.78253000       0.21549000       0.04473000
   177  C          0.40653000       0.29181000       0.60913000
   178  C          0.09347000       0.79181000       0.89087000
   179  C          0.59347000       0.70819000       0.39087000
   180  C          0.90653000       0.20819000       0.10913000
   181  C          0.41644000       0.31441000       0.72703000
   182  C          0.08356000       0.81441000       0.77297000
   183  C          0.58356000       0.68559000       0.27297000
   184  C          0.91644000       0.18559000       0.22703000
   185  C          0.30044000       0.33161000       0.77463000
   186  C          0.19956000       0.83161000       0.72537000
   187  C          0.69956000       0.66839000       0.22537000
   188  C          0.80044000       0.16839000       0.27463000
   189  C          0.17644000       0.33111000       0.70553000
   190  C          0.32356000       0.83111000       0.79447000
   191  C          0.82356000       0.66889000       0.29447000
   192  C          0.67644000       0.16889000       0.20553000
   193  C          0.17073000       0.30911000       0.58783000
   194  C          0.32927000       0.80911000       0.91217000
   195  C          0.82927000       0.69089000       0.41217000
   196  C          0.67073000       0.19089000       0.08783000
   197  C          0.15673000       0.29071000       0.32023000
   198  C          0.34327000       0.79071000       0.17977000
   199  C          0.84327000       0.70929000       0.67977000
   200  C          0.65673000       0.20929000       0.82023000
   201  C          0.05893000       0.31681000       0.38193000
   202  C          0.44107000       0.81681000       0.11807000
   203  C          0.94107000       0.68319000       0.61807000
   204  C          0.55893000       0.18319000       0.88193000
   205  C          0.97167000       0.34981000       0.31513000
   206  C          0.52833000       0.84981000       0.18487000
   207  C          0.02833000       0.65019000       0.68487000
   208  C          0.47167000       0.15019000       0.81513000
   209  C         -0.01223000       0.35852000       0.18983000
   210  C          0.51223000       0.85852000       0.31017000
   211  C          0.01223000       0.64148000       0.81017000
   212  C          0.48777000       0.14148000       0.68983000
   213  C          0.09303000       0.33731000       0.12943000
   214  C          0.40697000       0.83731000       0.37057000
   215  C          0.90697000       0.66269000       0.87057000
   216  C          0.59303000       0.16269000       0.62943000
   217  C          0.17893000       0.30411000       0.19793000
   218  C          0.32107000       0.80411000       0.30207000
   219  C          0.82107000       0.69589000       0.80207000
   220  C          0.67893000       0.19589000       0.69793000
   221  H          0.52813000       0.30801000       0.08284000
   222  H          0.97187000       0.80801000       0.41716000
   223  H          0.47187000       0.69199000       0.91716000
   224  H          0.02813000       0.19199000       0.58284000
   225  H          0.72134000       0.31371000       0.21434000
   226  H          0.77866000       0.81371000       0.28566000
   227  H          0.27866000       0.68629000       0.78566000
   228  H          0.22134000       0.18629000       0.71434000
   229  H          0.72123000       0.30111000       0.42774000
   230  H          0.77877000       0.80111000       0.07226000
   231  H          0.27877000       0.69889000       0.57226000
   232  H          0.22123000       0.19889000       0.92774000
   233  H          0.49834000       0.31781000       0.77273000
   234  H          0.00166000       0.81781000       0.72727000
   235  H          0.50166000       0.68219000       0.22727000
   236  H         -0.00166000       0.18219000       0.27273000
   237  H          0.30484000       0.34421000       0.85633000
   238  H          0.19516000       0.84421000       0.64367000
   239  H          0.69516000       0.65579000       0.14367000
   240  H          0.80484000       0.15579000       0.35633000
   241  H          0.10104000       0.34501000       0.73803000
   242  H          0.39896000       0.84501000       0.76197000
   243  H          0.89896000       0.65499000       0.26197000
   244  H          0.60104000       0.15499000       0.23803000
   245  H          0.90287000       0.36611000       0.35373000
   246  H          0.59713000       0.86611000       0.14627000
   247  H          0.09713000       0.63389000       0.64627000
   248  H          0.40287000       0.13389000       0.85373000
   249  H          0.92567000       0.37932000       0.14403000
   250  H          0.57433000       0.87932000       0.35597000
   251  H          0.07433000       0.62068000       0.85597000
   252  H          0.42567000       0.12068000       0.64403000
   253  H          0.10483000       0.34521000       0.04623000
   254  H          0.39517000       0.84521000       0.45377000
   255  H          0.89517000       0.65479000       0.95377000
   256  H          0.60483000       0.15479000       0.54623000
