data_NOQCIF04
_symmetry_space_group_name_H-M    'P1'
_symmetry_Int_Tables_number       1
loop_
_symmetry_equiv_pos_site_id
_symmetry_equiv_pos_as_xyz
1 x,y,z
_cell_length_a                   12.08506
_cell_length_b                   7.44124
_cell_length_c                   29.722016
_cell_angle_alpha                90.0
_cell_angle_beta                 90.0
_cell_angle_gamma                90.0
loop_
_atom_site_label
_atom_site_type_symbol
_atom_site_fract_x
_atom_site_fract_y
_atom_site_fract_z
     1  P          0.48007400       0.47915700       0.62129200
     2  P          0.01992600       0.52084300       0.12129200
     3  P          0.51992600       0.97915700       0.87870800
     4  P          0.98007400       0.02084300       0.37870800
     5  P          0.51992600       0.52084300       0.37870800
     6  P          0.98007400       0.47915700       0.87870800
     7  P          0.48007400       0.02084300       0.12129200
     8  P          0.01992600       0.97915700       0.62129200
     9  O          0.46334110       0.29542000       0.71076500
    10  O          0.03665890       0.70458000       0.21076500
    11  O          0.53665890       0.79542000       0.78923500
    12  O          0.96334110       0.20458000       0.28923500
    13  O          0.53665890       0.70458000       0.28923500
    14  O          0.96334110       0.29542000       0.78923500
    15  O          0.46334110       0.20458000       0.21076500
    16  O          0.03665890       0.79542000       0.71076500
    17  O          0.60914110       0.23802000       0.56029500
    18  O          0.89085890       0.76198000       0.06029500
    19  O          0.39085890       0.73802000       0.93970500
    20  O          0.10914110       0.26198000       0.43970500
    21  O          0.39085890       0.76198000       0.43970500
    22  O          0.10914110       0.23802000       0.93970500
    23  O          0.60914110       0.26198000       0.06029500
    24  O          0.89085890       0.73802000       0.56029500
    25  O          0.25123120       0.50917190       0.58378500
    26  O          0.24876880       0.49082810       0.08378500
    27  O          0.74876880       0.00917190       0.91621500
    28  O          0.75123120      -0.00917190       0.41621500
    29  O          0.74876880       0.49082810       0.41621500
    30  O          0.75123120       0.50917190       0.91621500
    31  O          0.25123120      -0.00917190       0.08378500
    32  O          0.24876880       0.00917190       0.58378500
    33  O          0.53505120       0.65572000       0.62462500
    34  O          0.96494880       0.34428000       0.12462500
    35  O          0.46494880       0.15572000       0.87537500
    36  O          0.03505120       0.84428000       0.37537500
    37  O          0.46494880       0.34428000       0.37537500
    38  O          0.03505120       0.65572000       0.87537500
    39  O          0.53505120       0.84428000       0.12462500
    40  O          0.96494880       0.15572000       0.62462500
    41  C          0.55350150       0.28753000       0.63790700
    42  C          0.94649850       0.71247000       0.13790700
    43  C          0.44649850       0.78753000       0.86209300
    44  C          0.05350150       0.21247000       0.36209300
    45  C          0.44649850       0.71247000       0.36209300
    46  C          0.05350150       0.28753000       0.86209300
    47  C          0.55350150       0.21247000       0.13790700
    48  C          0.94649850       0.78753000       0.63790700
    49  C          0.54109150       0.22073000       0.68130700
    50  C          0.95890850       0.77927000       0.18130700
    51  C          0.45890850       0.72073000       0.81869300
    52  C          0.04109150       0.27927000       0.31869300
    53  C          0.45890850       0.77927000       0.31869300
    54  C          0.04109150       0.22073000       0.81869300
    55  C          0.54109150       0.27927000       0.18130700
    56  C          0.95890850       0.72073000       0.68130700
    57  C          0.60366160       0.07453000       0.69535700
    58  C          0.89633840       0.92547000       0.19535700
    59  C          0.39633840       0.57453000       0.80464300
    60  C          0.10366160       0.42547000       0.30464300
    61  C          0.39633840       0.92547000       0.30464300
    62  C          0.10366160       0.07453000       0.80464300
    63  C          0.60366160       0.42547000       0.19535700
    64  C          0.89633840       0.57453000       0.69535700
    65  H          0.59420000       0.02530000       0.72609000
    66  H          0.90580000       0.97470000       0.22609000
    67  H          0.40580000       0.52530000       0.77391000
    68  H          0.09420000       0.47470000       0.27391000
    69  H          0.40580000       0.97470000       0.27391000
    70  H          0.09420000       0.02530000       0.77391000
    71  H          0.59420000       0.47470000       0.22609000
    72  H          0.90580000       0.52530000       0.72609000
    73  C          0.67303170      -0.00753000       0.66380800
    74  C          0.82696830       0.00753000       0.16380800
    75  C          0.32696830       0.49247000       0.83619200
    76  C          0.17303170       0.50753000       0.33619200
    77  C          0.32696830       0.00753000       0.33619200
    78  C          0.17303170      -0.00753000       0.83619200
    79  C          0.67303170       0.50753000       0.16380800
    80  C          0.82696830       0.49247000       0.66380800
    81  H          0.71520000       0.88560000       0.67379000
    82  H          0.78480000       0.11440000       0.17379000
    83  H          0.28480000       0.38560000       0.82621000
    84  H          0.21520000       0.61440000       0.32621000
    85  H          0.28480000       0.11440000       0.32621000
    86  H          0.21520000       0.88560000       0.82621000
    87  H          0.71520000       0.61440000       0.17379000
    88  H          0.78480000       0.38560000       0.67379000
    89  C          0.67706170       0.04533000       0.61898700
    90  C          0.82293830       0.95467000       0.11898700
    91  C          0.32293830       0.54533000       0.88101300
    92  C          0.17706170       0.45467000       0.38101300
    93  C          0.32293830       0.95467000       0.38101300
    94  C          0.17706170       0.04533000       0.88101300
    95  C          0.67706170       0.45467000       0.11898700
    96  C          0.82293830       0.54533000       0.61898700
    97  H          0.71920000       0.98070000       0.59678000
    98  H          0.78080000       0.01930000       0.09678000
    99  H          0.28080000       0.48070000       0.90322000
   100  H          0.21920000       0.51930000       0.40322000
   101  H          0.28080000       0.01930000       0.40322000
   102  H          0.21920000       0.98070000       0.90322000
   103  H          0.71920000       0.51930000       0.09678000
   104  H          0.78080000       0.48070000       0.59678000
   105  C          0.61363150       0.19093000       0.60588700
   106  C          0.88636850       0.80907000       0.10588700
   107  C          0.38636850       0.69093000       0.89411300
   108  C          0.11363150       0.30907000       0.39411300
   109  C          0.38636850       0.80907000       0.39411300
   110  C          0.11363150       0.19093000       0.89411300
   111  C          0.61363150       0.30907000       0.10588700
   112  C          0.88636850       0.69093000       0.60588700
   113  C          0.43694150       0.40242000       0.56857700
   114  C          0.06305850       0.59758000       0.06857700
   115  C          0.56305850       0.90242000       0.93142300
   116  C          0.93694150       0.09758000       0.43142300
   117  C          0.56305850       0.59758000       0.43142300
   118  C          0.93694150       0.40242000       0.93142300
   119  C          0.43694150       0.09758000       0.06857700
   120  C          0.06305850       0.90242000       0.56857700
   121  C          0.50762160       0.29703000       0.54266700
   122  C         -0.00762160       0.70297000       0.04266700
   123  C          0.49237840       0.79703000       0.95733300
   124  C          0.00762160       0.20297000       0.45733300
   125  C          0.49237840       0.70297000       0.45733300
   126  C          0.00762160       0.29703000       0.95733300
   127  C          0.50762160       0.20297000       0.04266700
   128  C         -0.00762160       0.79703000       0.54266700
   129  C          0.47827170       0.24913000       0.49931700
   130  C          0.02172830       0.75087000      -0.00068300
   131  C          0.52172830       0.74913000       0.00068300
   132  C          0.97827170       0.25087000       0.50068300
   133  C          0.52172830       0.75087000       0.50068300
   134  C          0.97827170       0.24913000       0.00068300
   135  C          0.47827170       0.25087000      -0.00068300
   136  C          0.02172830       0.74913000       0.49931700
   137  H          0.52520000       0.18340000       0.48099000
   138  H          0.97480000       0.81660000       0.98099000
   139  H          0.47480000       0.68340000       0.01901000
   140  H          0.02520000       0.31660000       0.51901000
   141  H          0.47480000       0.81660000       0.51901000
   142  H          0.02520000       0.18340000       0.01901000
   143  H          0.52520000       0.31660000       0.98099000
   144  H          0.97480000       0.68340000       0.48099000
   145  C          0.37389180       0.30203000       0.48400700
   146  C          0.12610820       0.69797000       0.98400700
   147  C          0.62610820       0.80203000       0.01599300
   148  C          0.87389180       0.19797000       0.51599300
   149  C          0.62610820       0.69797000       0.51599300
   150  C          0.87389180       0.30203000       0.01599300
   151  C          0.37389180       0.19797000       0.98400700
   152  C          0.12610820       0.80203000       0.48400700
   153  H          0.35520000       0.26640000       0.45239000
   154  H          0.14480000       0.73360000       0.95239000
   155  H          0.64480000       0.76640000       0.04761000
   156  H          0.85520000       0.23360000       0.54761000
   157  H          0.64480000       0.73360000       0.54761000
   158  H          0.85520000       0.26640000       0.04761000
   159  H          0.35520000       0.23360000       0.95239000
   160  H          0.14480000       0.76640000       0.45239000
   161  C          0.29716170       0.38933000       0.51105700
   162  C          0.20283830       0.61067000       0.01105700
   163  C          0.70283830       0.88933000       0.98894300
   164  C          0.79716170       0.11067000       0.48894300
   165  C          0.70283830       0.61067000       0.48894300
   166  C          0.79716170       0.38933000       0.98894300
   167  C          0.29716170       0.11067000       0.01105700
   168  C          0.20283830       0.88933000       0.51105700
   169  H          0.22620000       0.41840000       0.50118000
   170  H          0.27380000       0.58160000       0.00118000
   171  H          0.77380000       0.91840000      -0.00118000
   172  H          0.72620000       0.08160000       0.49882000
   173  H          0.77380000       0.58160000       0.49882000
   174  H          0.72620000       0.41840000      -0.00118000
   175  H          0.22620000       0.08160000       0.00118000
   176  H          0.27380000       0.91840000       0.50118000
   177  C          0.32888160       0.43473000       0.55446700
   178  C          0.17111840       0.56527000       0.05446700
   179  C          0.67111840       0.93473000       0.94553300
   180  C          0.82888160       0.06527000       0.44553300
   181  C          0.67111840       0.56527000       0.44553300
   182  C          0.82888160       0.43473000       0.94553300
   183  C          0.32888160       0.06527000       0.05446700
   184  C          0.17111840       0.93473000       0.55446700
   185  C          0.35731150       0.43523000       0.65076700
   186  C          0.14268850       0.56477000       0.15076700
   187  C          0.64268850       0.93523000       0.84923300
   188  C          0.85731150       0.06477000       0.34923300
   189  C          0.64268850       0.56477000       0.34923300
   190  C          0.85731150       0.43523000       0.84923300
   191  C          0.35731150       0.06477000       0.15076700
   192  C          0.14268850       0.93523000       0.65076700
   193  C          0.36158150       0.35053000       0.69245700
   194  C          0.13841850       0.64947000       0.19245700
   195  C          0.63841850       0.85053000       0.80754300
   196  C          0.86158150       0.14947000       0.30754300
   197  C          0.63841850       0.64947000       0.30754300
   198  C          0.86158150       0.35053000       0.80754300
   199  C          0.36158150       0.14947000       0.19245700
   200  C          0.13841850       0.85053000       0.69245700
   201  C          0.26514170       0.31373000       0.71602700
   202  C          0.23485830       0.68627000       0.21602700
   203  C          0.73485830       0.81373000       0.78397300
   204  C          0.76514170       0.18627000       0.28397300
   205  C          0.73485830       0.68627000       0.28397300
   206  C          0.76514170       0.31373000       0.78397300
   207  C          0.26514170       0.18627000       0.21602700
   208  C          0.23485830       0.81373000       0.71602700
   209  H          0.26620000       0.25530000       0.74568000
   210  H          0.23380000       0.74470000       0.24568000
   211  H          0.73380000       0.75530000       0.75432000
   212  H          0.76620000       0.24470000       0.25432000
   213  H          0.73380000       0.74470000       0.25432000
   214  H          0.76620000       0.25530000       0.75432000
   215  H          0.26620000       0.24470000       0.24568000
   216  H          0.23380000       0.75530000       0.74568000
   217  C          0.16481170       0.35533000       0.69535700
   218  C          0.33518830       0.64467000       0.19535700
   219  C          0.83518830       0.85533000       0.80464300
   220  C          0.66481170       0.14467000       0.30464300
   221  C          0.83518830       0.64467000       0.30464300
   222  C          0.66481170       0.35533000       0.80464300
   223  C          0.16481170       0.14467000       0.19535700
   224  C          0.33518830       0.85533000       0.69535700
   225  H          0.09620000       0.32930000       0.71118000
   226  H          0.40380000       0.67070000       0.21118000
   227  H          0.90380000       0.82930000       0.78882000
   228  H          0.59620000       0.17070000       0.28882000
   229  H          0.90380000       0.67070000       0.28882000
   230  H          0.59620000       0.32930000       0.78882000
   231  H          0.09620000       0.17070000       0.21118000
   232  H          0.40380000       0.82930000       0.71118000
   233  C          0.15797170       0.42203000       0.65149800
   234  C          0.34202830       0.57797000       0.15149800
   235  C          0.84202830       0.92203000       0.84850200
   236  C          0.65797170       0.07797000       0.34850200
   237  C          0.84202830       0.57797000       0.34850200
   238  C          0.65797170       0.42203000       0.84850200
   239  C          0.15797170       0.07797000       0.15149800
   240  C          0.34202830       0.92203000       0.65149800
   241  H          0.08920000       0.43540000       0.63849000
   242  H          0.41080000       0.56460000       0.13849000
   243  H          0.91080000       0.93540000       0.86151000
   244  H          0.58920000       0.06460000       0.36151000
   245  H          0.91080000       0.56460000       0.36151000
   246  H          0.58920000       0.43540000       0.86151000
   247  H          0.08920000       0.06460000       0.13849000
   248  H          0.41080000       0.93540000       0.63849000
   249  C          0.25587160       0.45763000       0.62891700
   250  C          0.24412840       0.54237000       0.12891700
   251  C          0.74412840       0.95763000       0.87108300
   252  C          0.75587160       0.04237000       0.37108300
   253  C          0.74412840       0.54237000       0.37108300
   254  C          0.75587160       0.45763000       0.87108300
   255  C          0.25587160       0.04237000       0.12891700
   256  C          0.24412840       0.95763000       0.62891700
