data_NOQCIF03
_symmetry_space_group_name_H-M    'P1'
_symmetry_Int_Tables_number       1
loop_
_symmetry_equiv_pos_site_id
_symmetry_equiv_pos_as_xyz
1 x,y,z
_cell_length_a                   9.91995
_cell_length_b                   11.89325
_cell_length_c                   11.89506
_cell_angle_alpha                90.0
_cell_angle_beta                 101.8793
_cell_angle_gamma                90.0
loop_
_atom_site_label
_atom_site_type_symbol
_atom_site_fract_x
_atom_site_fract_y
_atom_site_fract_z
     1  P          0.29635800       0.34026700       0.51453700
     2  P          0.70364200       0.84026700       0.48546300
     3  O          0.04403000       0.41852000       0.35182000
     4  O          0.95597000       0.91852000       0.64818000
     5  O          0.51333000       0.29622000       0.37792000
     6  O          0.48667000       0.79622000       0.62208000
     7  O          0.39803000       0.53092000       0.67512000
     8  O          0.60197000       0.03092000       0.32488000
     9  O          0.26263000       0.23862000       0.57472000
    10  O          0.73737000       0.73862000       0.42528000
    11  C          0.27083000       0.33673000       0.36473000
    12  C          0.72917000       0.83673000       0.63527000
    13  C          0.14424000       0.37053000       0.29943000
    14  C          0.85576000       0.87053000       0.70057000
    15  C          0.11734000       0.35653000       0.18143000
    16  C          0.88266000       0.85653000       0.81857000
    17  H          0.02930000       0.37342600       0.13567200
    18  H          0.97070000       0.87342600       0.86432800
    19  C          0.22464000       0.31653000       0.13173000
    20  C          0.77536000       0.81653000       0.86827000
    21  H          0.20592200       0.30240300       0.05136600
    22  H          0.79407800       0.80240300       0.94863400
    23  C          0.35684000       0.29643000       0.19433000
    24  C          0.64316000       0.79643000       0.80567000
    25  H          0.42886100       0.27440400       0.15727200
    26  H          0.57113900       0.77440400       0.84272800
    27  C          0.38034000       0.30953000       0.31253000
    28  C          0.61966000       0.80953000       0.68747000
    29  C          0.46413000       0.39443000       0.54393000
    30  C          0.53587000       0.89443000       0.45607000
    31  C          0.55584000       0.36473000       0.47403000
    32  C          0.44416000       0.86473000       0.52597000
    33  C          0.68914000       0.40473000       0.49863000
    34  C          0.31086000       0.90473000       0.50137000
    35  H          0.75395400       0.38219400       0.45428100
    36  H          0.24604600       0.88219400       0.54571900
    37  C          0.72624000       0.47943000       0.59053000
    38  C          0.27376000       0.97943000       0.40947000
    39  H          0.81944100       0.50312100       0.61182600
    40  H          0.18055900       0.00312100       0.38817400
    41  C          0.63104000       0.52033000       0.65223000
    42  C          0.36896000       0.02033000       0.34777000
    43  H          0.65751800       0.57423500       0.71154100
    44  H          0.34248200       0.07423500       0.28845900
    45  C          0.49784000       0.48063000       0.62493000
    46  C          0.50216000       0.98063000       0.37507000
    47  C          0.20784000       0.46573000       0.52743000
    48  C          0.79216000       0.96573000       0.47257000
    49  C          0.08754000       0.48883000       0.44743000
    50  C          0.91246000      -0.01117000       0.55257000
    51  C          0.01064000       0.58293000       0.46133000
    52  C         -0.01064000       0.08293000       0.53867000
    53  H          0.92542000       0.59823800       0.41052000
    54  H          0.07458000       0.09823800       0.58948000
    55  C          0.06314000       0.65463000       0.55293000
    56  C          0.93686000       0.15463000       0.44707000
    57  H          0.00837200       0.71676700       0.56631400
    58  H         -0.00837200       0.21676700       0.43368600
    59  C          0.19094000       0.64023000       0.62543000
    60  C          0.80906000       0.14023000       0.37457000
    61  H          0.22598200       0.69339000       0.68369200
    62  H          0.77401800       0.19339000       0.31630800
    63  C          0.26524000       0.54483000       0.60913000
    64  C          0.73476000       0.04483000       0.39087000
    65  P          0.21647900       0.65649700       0.97983700
    66  P          0.78352100       0.15649700       0.02016300
    67  O          0.48542000       0.53892000       0.06402000
    68  O          0.51458000       0.03892000       0.93598000
    69  O          0.03373000       0.49752000       0.82542000
    70  O          0.96627000      -0.00248000       0.17458000
    71  O          0.09233000       0.69802000       0.18502000
    72  O          0.90767000       0.19802000       0.81498000
    73  O          0.23803000       0.76222000       0.92122000
    74  O          0.76197000       0.26222000       0.07878000
    75  C          0.26814000       0.52933000       0.92743000
    76  C          0.73186000       0.02933000       0.07257000
    77  C          0.39834000       0.48653000       0.97263000
    78  C          0.60166000       0.98653000       0.02737000
    79  C          0.44154000       0.38753000       0.92823000
    80  C          0.55846000       0.88753000       0.07177000
    81  H          0.53179900       0.35884700       0.95513400
    82  H          0.46820100       0.85884700       0.04486600
    83  C          0.34754000       0.33193000       0.84293000
    84  C          0.65246000       0.83193000       0.15707000
    85  H          0.37758000       0.26736000       0.80793100
    86  H          0.62242000       0.76736000       0.19206900
    87  C          0.21234000       0.36673000       0.80683000
    88  C          0.78766000       0.86673000       0.19317000
    89  H          0.14919300       0.32406600       0.75224700
    90  H          0.85080700       0.82406600       0.24775300
    91  C          0.17164000       0.46473000       0.85213000
    92  C          0.82836000       0.96473000       0.14787000
    93  C          0.05033000       0.61523000      -0.00647000
    94  C          0.94967000       0.11523000       0.00647000
    95  C          0.97726000       0.53883000       0.91543000
    96  C          0.02274000       0.03883000       0.08457000
    97  C          0.85176000       0.49833000       0.93023000
    98  C          0.14824000      -0.00167000       0.06977000
    99  H          0.79970500       0.44837200       0.87562600
   100  H          0.20029500       0.94837200       0.12437400
   101  C          0.80276000       0.53194000       0.02644000
   102  C          0.19724000       0.03194000       0.97356000
   103  H          0.71416800       0.50766600       0.03480700
   104  H          0.28583200       0.00766600       0.96519300
   105  C          0.88046000       0.60043000       0.11104000
   106  C          0.11954000       0.10043000       0.88896000
   107  H          0.84713700       0.61995300       0.17780400
   108  H          0.15286300       0.11995300       0.82219600
   109  C          0.00734000       0.63943000       0.09563000
   110  C         -0.00734000       0.13943000       0.90437000
   111  C          0.29963000       0.63943000       0.12393000
   112  C          0.70037000       0.13943000       0.87607000
   113  C          0.42764000       0.58683000       0.15053000
   114  C          0.57236000       0.08683000       0.84947000
   115  C          0.49834000       0.58063000       0.26323000
   116  C          0.50166000       0.08063000       0.73677000
   117  H          0.58808400       0.54893500       0.28207000
   118  H          0.41191600       0.04893500       0.71793000
   119  C          0.43444000       0.62183000       0.34823000
   120  C          0.56556000       0.12183000       0.65177000
   121  H          0.48454300       0.62259000       0.42538700
   122  H          0.51545700       0.12259000       0.57461300
   123  C          0.29934000       0.66223000       0.32483000
   124  C          0.70066000       0.16223000       0.67517000
   125  H          0.25586500       0.68546300       0.38502400
   126  H          0.74413500       0.18546300       0.61497600
   127  C          0.23064000       0.66733000       0.21133000
   128  C          0.76936000       0.16733000       0.78867000
