data_NOSYOJ
_symmetry_space_group_name_H-M    'P1'
_symmetry_Int_Tables_number       1
loop_
_symmetry_equiv_pos_site_id
_symmetry_equiv_pos_as_xyz
1 x,y,z
_cell_length_a                   15.30822
_cell_length_b                   6.11112
_cell_length_c                   28.29945
_cell_angle_alpha                90.0
_cell_angle_beta                 101.6112
_cell_angle_gamma                90.0
loop_
_atom_site_label
_atom_site_type_symbol
_atom_site_fract_x
_atom_site_fract_y
_atom_site_fract_z
     1  O          0.06973000       0.13921100       0.35872000
     2  O          0.56973000       0.63921100       0.85872000
     3  O          0.43027000       0.13921100       0.64128000
     4  O          0.93027000       0.63921100       0.14128000
     5  O          0.93027000       0.86078900       0.64128000
     6  O          0.43027000       0.36078900       0.14128000
     7  O          0.56973000       0.86078900       0.35872000
     8  O          0.06973000       0.36078900       0.85872000
     9  O          0.23204000       0.67241200       0.32423000
    10  O          0.73204000       0.17241200       0.82423000
    11  O          0.26796000       0.67241200       0.67577000
    12  O          0.76796000       0.17241200       0.17577000
    13  O          0.76796000       0.32758800       0.67577000
    14  O          0.26796000       0.82758800       0.17577000
    15  O          0.73204000       0.32758800       0.32423000
    16  O          0.23204000       0.82758800       0.82423000
    17  O          0.19164000       0.36761100       0.35742000
    18  O          0.69164000       0.86761100       0.85742000
    19  O          0.30836000       0.36761100       0.64258000
    20  O          0.80836000       0.86761100       0.14258000
    21  O          0.80836000       0.63238900       0.64258000
    22  O          0.30836000       0.13238900       0.14258000
    23  O          0.69164000       0.63238900       0.35742000
    24  O          0.19164000       0.13238900       0.85742000
    25  C          0.19676000       0.50252000       0.31844000
    26  C          0.69676000       0.00252000       0.81844000
    27  C          0.30324000       0.50252000       0.68156000
    28  C          0.80324000       0.00252000       0.18156000
    29  C          0.80324000       0.49748000       0.68156000
    30  C          0.30324000      -0.00252000       0.18156000
    31  C          0.69676000       0.49748000       0.31844000
    32  C          0.19676000      -0.00252000       0.81844000
    33  C          0.14926000       0.16041700       0.34033000
    34  C          0.64926000       0.66041700       0.84033000
    35  C          0.35074000       0.16041700       0.65967000
    36  C          0.85074000       0.66041700       0.15967000
    37  C          0.85074000       0.83958300       0.65967000
    38  C          0.35074000       0.33958300       0.15967000
    39  C          0.64926000       0.83958300       0.34033000
    40  C          0.14926000       0.33958300       0.84033000
    41  H          0.18966000       0.03751700       0.35073000
    42  H          0.68966000       0.53751700       0.85073000
    43  H          0.31034000       0.03751700       0.64927000
    44  H          0.81034000       0.53751700       0.14927000
    45  H          0.81034000       0.96248300       0.64927000
    46  H          0.31034000       0.46248300       0.14927000
    47  H          0.68966000       0.96248300       0.35073000
    48  H          0.18966000       0.46248300       0.85073000
    49  C          0.12955000       0.17901600       0.28773000
    50  C          0.62955000       0.67901600       0.78773000
    51  C          0.37045000       0.17901600       0.71227000
    52  C          0.87045000       0.67901600       0.21227000
    53  C          0.87045000       0.82098400       0.71227000
    54  C          0.37045000       0.32098400       0.21227000
    55  C          0.62955000       0.82098400       0.28773000
    56  C          0.12955000       0.32098400       0.78773000
    57  C          0.08556000       0.02851700       0.25304000
    58  C          0.58556000       0.52851700       0.75304000
    59  C          0.41444000       0.02851700       0.74696000
    60  C          0.91444000       0.52851700       0.24696000
    61  C          0.91444000       0.97148300       0.74696000
    62  C          0.41444000       0.47148300       0.24696000
    63  C          0.58556000       0.97148300       0.25304000
    64  C          0.08556000       0.47148300       0.75304000
    65  H          0.06336000       0.89508300       0.26124000
    66  H          0.56336000       0.39508300       0.76124000
    67  H          0.43664000       0.89508300       0.73876000
    68  H          0.93664000       0.39508300       0.23876000
    69  H          0.93664000       0.10491700       0.73876000
    70  H          0.43664000       0.60491700       0.23876000
    71  H          0.56336000       0.10491700       0.26124000
    72  H          0.06336000       0.60491700       0.76124000
    73  C          0.07816000       0.09941900       0.20474000
    74  C          0.57816000       0.59941900       0.70474000
    75  C          0.42184000       0.09941900       0.79526000
    76  C          0.92184000       0.59941900       0.29526000
    77  C          0.92184000       0.90058100       0.79526000
    78  C          0.42184000       0.40058100       0.29526000
    79  C          0.57816000       0.90058100       0.20474000
    80  C          0.07816000       0.40058100       0.70474000
    81  H          0.05026000       0.00611900       0.18034000
    82  H          0.55026000       0.50611900       0.68034000
    83  H          0.44974000       0.00611900       0.81966000
    84  H          0.94974000       0.50611900       0.31966000
    85  H          0.94974000      -0.00611900       0.81966000
    86  H          0.44974000       0.49388100       0.31966000
    87  H          0.55026000      -0.00611900       0.18034000
    88  H          0.05026000       0.49388100       0.68034000
    89  C          0.10847000       0.29102100       0.19154000
    90  C          0.60847000       0.79102100       0.69154000
    91  C          0.39153000       0.29102100       0.80846000
    92  C          0.89153000       0.79102100       0.30846000
    93  C          0.89153000       0.70897900       0.80846000
    94  C          0.39153000       0.20897900       0.30846000
    95  C          0.60847000       0.70897900       0.19154000
    96  C          0.10847000       0.20897900       0.69154000
    97  H          0.10177000       0.32572100       0.15904000
    98  H          0.60177000       0.82572100       0.65904000
    99  H          0.39823000       0.32572100       0.84096000
   100  H          0.89823000       0.82572100       0.34096000
   101  H          0.89823000       0.67427900       0.84096000
   102  H          0.39823000       0.17427900       0.34096000
   103  H          0.60177000       0.67427900       0.15904000
   104  H          0.10177000       0.17427900       0.65904000
   105  C          0.15057000       0.43971800       0.22674000
   106  C          0.65057000       0.93971800       0.72674000
   107  C          0.34943000       0.43971800       0.77326000
   108  C          0.84943000       0.93971800       0.27326000
   109  C          0.84943000       0.56028200       0.77326000
   110  C          0.34943000       0.06028200       0.27326000
   111  C          0.65057000       0.56028200       0.22674000
   112  C          0.15057000       0.06028200       0.72674000
   113  H          0.17267000       0.57291800       0.21844000
   114  H          0.67267000       0.07291800       0.71844000
   115  H          0.32733000       0.57291800       0.78156000
   116  H          0.82733000       0.07291800       0.28156000
   117  H          0.82733000       0.42708200       0.78156000
   118  H          0.32733000       0.92708200       0.28156000
   119  H          0.67267000       0.42708200       0.21844000
   120  H          0.17267000       0.92708200       0.71844000
   121  C          0.15756000       0.37851600       0.27433000
   122  C          0.65756000       0.87851600       0.77433000
   123  C          0.34244000       0.37851600       0.72567000
   124  C          0.84244000       0.87851600       0.22567000
   125  C          0.84244000       0.62148400       0.72567000
   126  C          0.34244000       0.12148400       0.22567000
   127  C          0.65756000       0.62148400       0.27433000
   128  C          0.15756000       0.12148400       0.77433000
   129  O          0.10245000       0.58888700       0.45753000
   130  O          0.60245000       0.08888700       0.95753000
   131  O          0.39755000       0.58888700       0.54247000
   132  O          0.89755000       0.08888700       0.04247000
   133  O          0.89755000       0.41111300       0.54247000
   134  O          0.39755000       0.91111300       0.04247000
   135  O          0.60245000       0.41111300       0.45753000
   136  O          0.10245000       0.91111300       0.95753000
   137  O          0.12993000       0.90238900       0.42232000
   138  O          0.62993000       0.40238900       0.92232000
   139  O          0.37007000       0.90238900       0.57768000
   140  O          0.87007000       0.40238900       0.07768000
   141  O          0.87007000       0.09761100       0.57768000
   142  O          0.37007000       0.59761100       0.07768000
   143  O          0.62993000       0.09761100       0.42232000
   144  O          0.12993000       0.59761100       0.92232000
   145  C          0.07727000       0.75878100       0.44114000
   146  C          0.57727000       0.25878100       0.94114000
   147  C          0.42273000       0.75878100       0.55886000
   148  C          0.92273000       0.25878100       0.05886000
   149  C          0.92273000       0.24121900       0.55886000
   150  C          0.42273000       0.74121900       0.05886000
   151  C          0.57727000       0.24121900       0.44114000
   152  C          0.07727000       0.74121900       0.94114000
   153  C          0.08286000       0.10581700       0.40854000
   154  C          0.58286000       0.60581700       0.90854000
   155  C          0.41714000       0.10581700       0.59146000
   156  C          0.91714000       0.60581700       0.09146000
   157  C          0.91714000       0.89418300       0.59146000
   158  C          0.41714000       0.39418300       0.09146000
   159  C          0.58286000       0.89418300       0.40854000
   160  C          0.08286000       0.39418300       0.90854000
   161  H          0.11496000       0.22951700       0.42604000
   162  H          0.61496000       0.72951700       0.92604000
   163  H          0.38504000       0.22951700       0.57396000
   164  H          0.88504000       0.72951700       0.07396000
   165  H          0.88504000       0.77048300       0.57396000
   166  H          0.38504000       0.27048300       0.07396000
   167  H          0.61496000       0.77048300       0.42604000
   168  H          0.11496000       0.27048300       0.92604000
   169  C         -0.00616000       0.07561600       0.42233000
   170  C          0.49384000       0.57561600       0.92233000
   171  C          0.50616000       0.07561600       0.57767000
   172  C          0.00616000       0.57561600       0.07767000
   173  C          0.00616000       0.92438400       0.57767000
   174  C          0.50616000       0.42438400       0.07767000
   175  C          0.49384000       0.92438400       0.42233000
   176  C         -0.00616000       0.42438400       0.92233000
   177  C          0.92074000       0.21121800       0.41603000
   178  C          0.42074000       0.71121800       0.91603000
   179  C          0.57926000       0.21121800       0.58397000
   180  C          0.07926000       0.71121800       0.08397000
   181  C          0.07926000       0.78878200       0.58397000
   182  C          0.57926000       0.28878200       0.08397000
   183  C          0.42074000       0.78878200       0.41603000
   184  C          0.92074000       0.28878200       0.91603000
   185  H          0.92174000       0.34821800       0.40193000
   186  H          0.42174000       0.84821800       0.90193000
   187  H          0.57826000       0.34821800       0.59807000
   188  H          0.07826000       0.84821800       0.09807000
   189  H          0.07826000       0.65178200       0.59807000
   190  H          0.57826000       0.15178200       0.09807000
   191  H          0.42174000       0.65178200       0.40193000
   192  H          0.92174000       0.15178200       0.90193000
   193  C          0.84444000       0.13632000       0.43183000
   194  C          0.34444000       0.63632000       0.93183000
   195  C          0.65556000       0.13632000       0.56817000
   196  C          0.15556000       0.63632000       0.06817000
   197  C          0.15556000       0.86368000       0.56817000
   198  C          0.65556000       0.36368000       0.06817000
   199  C          0.34444000       0.86368000       0.43183000
   200  C          0.84444000       0.36368000       0.93183000
   201  H          0.79424000       0.22532000       0.42833000
   202  H          0.29424000       0.72532000       0.92833000
   203  H          0.70576000       0.22532000       0.57167000
   204  H          0.20576000       0.72532000       0.07167000
   205  H          0.20576000       0.77468000       0.57167000
   206  H          0.70576000       0.27468000       0.07167000
   207  H          0.29424000       0.77468000       0.42833000
   208  H          0.79424000       0.27468000       0.92833000
   209  C          0.84373000       0.93057900       0.45243000
   210  C          0.34373000       0.43057900       0.95243000
   211  C          0.65627000       0.93057900       0.54757000
   212  C          0.15627000       0.43057900       0.04757000
   213  C          0.15627000       0.06942100       0.54757000
   214  C          0.65627000       0.56942100       0.04757000
   215  C          0.34373000       0.06942100       0.45243000
   216  C          0.84373000       0.56942100       0.95243000
   217  H          0.79273000       0.88287900       0.46253000
   218  H          0.29273000       0.38287900       0.96253000
   219  H          0.70727000       0.88287900       0.53747000
   220  H          0.20727000       0.38287900       0.03747000
   221  H          0.20727000       0.11712100       0.53747000
   222  H          0.70727000       0.61712100       0.03747000
   223  H          0.29273000       0.11712100       0.46253000
   224  H          0.79273000       0.61712100       0.96253000
   225  C          0.91793000       0.79428200       0.45833000
   226  C          0.41793000       0.29428200       0.95833000
   227  C          0.58207000       0.79428200       0.54167000
   228  C          0.08207000       0.29428200       0.04167000
   229  C          0.08207000       0.20571800       0.54167000
   230  C          0.58207000       0.70571800       0.04167000
   231  C          0.41793000       0.20571800       0.45833000
   232  C          0.91793000       0.70571800       0.95833000
   233  H          0.91773000       0.65718200       0.47253000
   234  H          0.41773000       0.15718200       0.97253000
   235  H          0.58227000       0.65718200       0.52747000
   236  H          0.08227000       0.15718200       0.02747000
   237  H          0.08227000       0.34281800       0.52747000
   238  H          0.58227000       0.84281800       0.02747000
   239  H          0.41773000       0.34281800       0.47253000
   240  H          0.91773000       0.84281800       0.97253000
   241  C         -0.00806000       0.86898500       0.44233000
   242  C          0.49194000       0.36898500       0.94233000
   243  C          0.50806000       0.86898500       0.55767000
   244  C          0.00806000       0.36898500       0.05767000
   245  C          0.00806000       0.13101500       0.55767000
   246  C          0.50806000       0.63101500       0.05767000
   247  C          0.49194000       0.13101500       0.44233000
   248  C         -0.00806000       0.63101500       0.94233000
