data_NOSYOJ03
_symmetry_space_group_name_H-M    'P1'
_symmetry_Int_Tables_number       1
loop_
_symmetry_equiv_pos_site_id
_symmetry_equiv_pos_as_xyz
1 x,y,z
_cell_length_a                   6.09083
_cell_length_b                   15.40378
_cell_length_c                   27.650517
_cell_angle_alpha                90.0
_cell_angle_beta                 90.0
_cell_angle_gamma                90.0
loop_
_atom_site_label
_atom_site_type_symbol
_atom_site_fract_x
_atom_site_fract_y
_atom_site_fract_z
     1  C          0.25784000       0.57918140       0.43239800
     2  C          0.24216000       0.42081860       0.93239800
     3  C          0.74216000       0.07918140       0.06760200
     4  C          0.75784000       0.92081860       0.56760200
     5  C          0.74216000       0.42081860       0.56760200
     6  C          0.75784000       0.57918140       0.06760200
     7  C          0.25784000       0.92081860       0.93239800
     8  C          0.24216000       0.07918140       0.43239800
     9  C          0.54526000       0.74093150       0.30318800
    10  C          0.95474000       0.25906850       0.80318800
    11  C          0.45474000       0.24093150       0.19681200
    12  C          0.04526000       0.75906850       0.69681200
    13  C          0.45474000       0.25906850       0.69681200
    14  C          0.04526000       0.74093150       0.19681200
    15  C          0.54526000       0.75906850       0.80318800
    16  C          0.95474000       0.24093150       0.30318800
    17  C          0.92627000       0.63642130       0.40803800
    18  C          0.57373000       0.36357870       0.90803800
    19  C          0.07373000       0.13642130       0.09196200
    20  C          0.42627000       0.86357870       0.59196200
    21  C          0.07373000       0.36357870       0.59196200
    22  C          0.42627000       0.63642130       0.09196200
    23  C          0.92627000       0.86357870       0.90803800
    24  C          0.57373000       0.13642130       0.40803800
    25  H          0.80440000       0.60000000       0.39690000
    26  H          0.69560000       0.40000000       0.89690000
    27  H          0.19560000       0.10000000       0.10310000
    28  H          0.30440000       0.90000000       0.60310000
    29  H          0.19560000       0.40000000       0.60310000
    30  H          0.30440000       0.60000000       0.10310000
    31  H          0.80440000       0.90000000       0.89690000
    32  H          0.69560000       0.10000000       0.39690000
    33  C          0.88416000       0.72896130       0.34009700
    34  C          0.61584000       0.27103870       0.84009700
    35  C          0.11584000       0.22896130       0.15990300
    36  C          0.38416000       0.77103870       0.65990300
    37  C          0.11584000       0.27103870       0.65990300
    38  C          0.38416000       0.72896130       0.15990300
    39  C          0.88416000       0.77103870       0.84009700
    40  C          0.61584000       0.22896130       0.34009700
    41  H          0.01590000       0.70720000       0.32370000
    42  H          0.48410000       0.29280000       0.82370000
    43  H         -0.01590000       0.20720000       0.17630000
    44  H          0.51590000       0.79280000       0.67630000
    45  H         -0.01590000       0.29280000       0.67630000
    46  H          0.51590000       0.70720000       0.17630000
    47  H          0.01590000       0.79280000       0.82370000
    48  H          0.48410000       0.20720000       0.32370000
    49  C          0.93687000       0.63737120       0.46224700
    50  C          0.56313000       0.36262880       0.96224700
    51  C          0.06313000       0.13737120       0.03775300
    52  C          0.43687000       0.86262880       0.53775300
    53  C          0.06313000       0.36262880       0.53775300
    54  C          0.43687000       0.63737120       0.03775300
    55  C          0.93687000       0.86262880       0.96224700
    56  C          0.56313000       0.13737120       0.46224700
    57  C          0.84277000       0.82230130       0.32809700
    58  C          0.65723000       0.17769870       0.82809700
    59  C          0.15723000       0.32230130       0.17190300
    60  C          0.34277000       0.67769870       0.67190300
    61  C          0.15723000       0.17769870       0.67190300
    62  C          0.34277000       0.82230130       0.17190300
    63  C          0.84277000       0.67769870       0.82809700
    64  C          0.65723000       0.32230130       0.32809700
    65  C          0.78786000       0.66653140       0.49591900
    66  C          0.71214000       0.33346860      -0.00408100
    67  C          0.21214000       0.16653140       0.00408100
    68  C          0.28786000       0.83346860       0.50408100
    69  C          0.21214000       0.33346860       0.50408100
    70  C          0.28786000       0.66653140       0.00408100
    71  C          0.78786000       0.83346860      -0.00408100
    72  C          0.71214000       0.16653140       0.49591900
    73  H          0.65580000       0.69170000       0.48660000
    74  H          0.84420000       0.30830000       0.98660000
    75  H          0.34420000       0.19170000       0.01340000
    76  H          0.15580000       0.80830000       0.51340000
    77  H          0.34420000       0.30830000       0.51340000
    78  H          0.15580000       0.69170000       0.01340000
    79  H          0.65580000       0.80830000       0.98660000
    80  H          0.84420000       0.19170000       0.48660000
    81  C          0.96596000       0.89544140       0.33665800
    82  C          0.53404000       0.10455860       0.83665800
    83  C          0.03404000       0.39544140       0.16334200
    84  C          0.46596000       0.60455860       0.66334200
    85  C          0.03404000       0.10455860       0.66334200
    86  C          0.46596000       0.89544140       0.16334200
    87  C          0.96596000       0.60455860       0.83665800
    88  C          0.53404000       0.39544140       0.33665800
    89  H          0.10280000       0.89170000       0.35150000
    90  H          0.39720000       0.10830000       0.85150000
    91  H          0.89720000       0.39170000       0.14850000
    92  H          0.60280000       0.60830000       0.64850000
    93  H          0.89720000       0.10830000       0.64850000
    94  H          0.60280000       0.89170000       0.14850000
    95  H          0.10280000       0.60830000       0.85150000
    96  H          0.39720000       0.39170000       0.35150000
    97  C          0.84216000       0.65691150       0.54399900
    98  C          0.65784000       0.34308850       0.04399900
    99  C          0.15784000       0.15691150       0.95600100
   100  C          0.34216000       0.84308850       0.45600100
   101  C          0.15784000       0.34308850       0.45600100
   102  C          0.34216000       0.65691150       0.95600100
   103  C          0.84216000       0.84308850       0.04399900
   104  C          0.65784000       0.15691150       0.54399900
   105  H          0.74460000       0.67600000       0.56760000
   106  H          0.75540000       0.32400000       0.06760000
   107  H          0.25540000       0.17600000       0.93240000
   108  H          0.24460000       0.82400000       0.43240000
   109  H          0.25540000       0.32400000       0.43240000
   110  H          0.24460000       0.67600000       0.93240000
   111  H          0.74460000       0.82400000       0.06760000
   112  H          0.75540000       0.17600000       0.56760000
   113  C          0.88126000       0.97453150       0.32266800
   114  C          0.61874000       0.02546850       0.82266800
   115  C          0.11874000       0.47453150       0.17733200
   116  C          0.38126000       0.52546850       0.67733200
   117  C          0.11874000       0.02546850       0.67733200
   118  C          0.38126000       0.97453150       0.17733200
   119  C          0.88126000       0.52546850       0.82266800
   120  C          0.61874000       0.47453150       0.32266800
   121  H          0.96240000       0.02480000       0.32780000
   122  H          0.53760000       0.97520000       0.82780000
   123  H          0.03760000       0.52480000       0.17220000
   124  H          0.46240000       0.47520000       0.67220000
   125  H          0.03760000       0.97520000       0.67220000
   126  H          0.46240000       0.02480000       0.17220000
   127  H          0.96240000       0.47520000       0.82780000
   128  H          0.53760000       0.52480000       0.32780000
   129  C          0.03884000       0.61942150       0.55795800
   130  C          0.46116000       0.38057850       0.05795800
   131  C          0.96116000       0.11942150       0.94204200
   132  C          0.53884000       0.88057850       0.44204200
   133  C          0.96116000       0.38057850       0.44204200
   134  C          0.53884000       0.61942150       0.94204200
   135  C          0.03884000       0.88057850       0.05795800
   136  C          0.46116000       0.11942150       0.55795800
   137  H          0.06980000       0.61310000       0.59070000
   138  H          0.43020000       0.38690000       0.09070000
   139  H          0.93020000       0.11310000       0.90930000
   140  H          0.56980000       0.88690000       0.40930000
   141  H          0.93020000       0.38690000       0.40930000
   142  H          0.56980000       0.61310000       0.90930000
   143  H          0.06980000       0.88690000       0.09070000
   144  H          0.43020000       0.11310000       0.59070000
   145  C          0.67596000       0.97999150       0.30091900
   146  C          0.82404000       0.02000850       0.80091900
   147  C          0.32404000       0.47999150       0.19908100
   148  C          0.17596000       0.52000850       0.69908100
   149  C          0.32404000       0.02000850       0.69908100
   150  C          0.17596000       0.97999150       0.19908100
   151  C          0.67596000       0.52000850       0.80091900
   152  C          0.82404000       0.47999150       0.30091900
   153  H          0.62220000       0.03400000       0.29160000
   154  H          0.87780000       0.96600000       0.79160000
   155  H          0.37780000       0.53400000       0.20840000
   156  H          0.12220000       0.46600000       0.70840000
   157  H          0.37780000       0.96600000       0.70840000
   158  H          0.12220000       0.03400000       0.20840000
   159  H          0.62220000       0.46600000       0.79160000
   160  H          0.87780000       0.53400000       0.29160000
   161  C          0.18924000       0.59140140       0.52435800
   162  C          0.31076000       0.40859860       0.02435800
   163  C          0.81076000       0.09140140       0.97564200
   164  C          0.68924000       0.90859860       0.47564200
   165  C          0.81076000       0.40859860       0.47564200
   166  C          0.68924000       0.59140140       0.97564200
   167  C          0.18924000       0.90859860       0.02435800
   168  C          0.31076000       0.09140140       0.52435800
   169  H          0.32200000       0.56670000       0.53360000
   170  H          0.17800000       0.43330000       0.03360000
   171  H          0.67800000       0.06670000       0.96640000
   172  H          0.82200000       0.93330000       0.46640000
   173  H          0.67800000       0.43330000       0.46640000
   174  H          0.82200000       0.56670000       0.96640000
   175  H          0.32200000       0.93330000       0.03360000
   176  H          0.17800000       0.06670000       0.53360000
   177  C          0.55156000       0.90726150       0.29292800
   178  C          0.94844000       0.09273850       0.79292800
   179  C          0.44844000       0.40726150       0.20707200
   180  C          0.05156000       0.59273850       0.70707200
   181  C          0.44844000       0.09273850       0.70707200
   182  C          0.05156000       0.90726150       0.20707200
   183  C          0.55156000       0.59273850       0.79292800
   184  C          0.94844000       0.40726150       0.29292800
   185  H          0.41340000       0.91090000       0.27880000
   186  H          0.08660000       0.08910000       0.77880000
   187  H          0.58660000       0.41090000       0.22120000
   188  H          0.91340000       0.58910000       0.72120000
   189  H          0.58660000       0.08910000       0.72120000
   190  H          0.91340000       0.91090000       0.22120000
   191  H          0.41340000       0.58910000       0.77880000
   192  H          0.08660000       0.41090000       0.27880000
   193  C          0.13373000       0.60174130       0.47599800
   194  C          0.36627000       0.39825870       0.97599800
   195  C          0.86627000       0.10174130       0.02400200
   196  C          0.63373000       0.89825870       0.52400200
   197  C          0.86627000       0.39825870       0.52400200
   198  C          0.63373000       0.60174130       0.02400200
   199  C          0.13373000       0.89825870       0.97599800
   200  C          0.36627000       0.10174130       0.47599800
   201  C          0.63947000       0.82820130       0.30673700
   202  C          0.86053000       0.17179870       0.80673700
   203  C          0.36053000       0.32820130       0.19326300
   204  C          0.13947000       0.67179870       0.69326300
   205  C          0.36053000       0.17179870       0.69326300
   206  C          0.13947000       0.82820130       0.19326300
   207  C          0.63947000       0.67179870       0.80673700
   208  C          0.86053000       0.32820130       0.30673700
   209  O          0.43683000       0.54772120       0.42793700
   210  O          0.06317000       0.45227880       0.92793700
   211  O          0.56317000       0.04772120       0.07206300
   212  O          0.93683000       0.95227880       0.57206300
   213  O          0.56317000       0.45227880       0.57206300
   214  O          0.93683000       0.54772120       0.07206300
   215  O          0.43683000       0.95227880       0.92793700
   216  O          0.06317000       0.04772120       0.42793700
   217  O          0.37517000       0.71643120       0.28613700
   218  O          0.12483000       0.28356880       0.78613700
   219  O          0.62483000       0.21643120       0.21386300
   220  O          0.87517000       0.78356880       0.71386300
   221  O          0.62483000       0.28356880       0.71386300
   222  O          0.87517000       0.71643120       0.21386300
   223  O          0.37517000       0.78356880       0.78613700
   224  O          0.12483000       0.21643120       0.28613700
   225  O          0.13352000       0.60035900       0.39302500
   226  O          0.36648000       0.39964100       0.89302500
   227  O          0.86648000       0.10035900       0.10697500
   228  O          0.63352000       0.89964100       0.60697500
   229  O          0.86648000       0.39964100       0.60697500
   230  O          0.63352000       0.60035900       0.10697500
   231  O          0.13352000       0.89964100       0.89302500
   232  O          0.36648000       0.10035900       0.39302500
   233  O          0.69077000       0.68429900       0.32385500
   234  O          0.80923000       0.31570100       0.82385500
   235  O          0.30923000       0.18429900       0.17614500
   236  O          0.19077000       0.81570100       0.67614500
   237  O          0.30923000       0.31570100       0.67614500
   238  O          0.19077000       0.68429900       0.17614500
   239  O          0.69077000       0.81570100       0.82385500
   240  O          0.80923000       0.18429900       0.32385500
   241  O          0.90338000       0.72167800       0.39078500
   242  O          0.59662000       0.27832200       0.89078500
   243  O          0.09662000       0.22167800       0.10921500
   244  O          0.40338000       0.77832200       0.60921500
   245  O          0.09662000       0.27832200       0.60921500
   246  O          0.40338000       0.72167800       0.10921500
   247  O          0.90338000       0.77832200       0.89078500
   248  O          0.59662000       0.22167800       0.39078500
