data_NOSYOJ01
_symmetry_space_group_name_H-M    'P1'
_symmetry_Int_Tables_number       1
loop_
_symmetry_equiv_pos_site_id
_symmetry_equiv_pos_as_xyz
1 x,y,z
_cell_length_a                   4.44496
_cell_length_b                   6.49378
_cell_length_c                   22.2222
_cell_angle_alpha                90.0
_cell_angle_beta                 91.33401
_cell_angle_gamma                90.0
loop_
_atom_site_label
_atom_site_type_symbol
_atom_site_fract_x
_atom_site_fract_y
_atom_site_fract_z
     1  O          0.41194000       0.15163000       0.04946800
     2  O          0.91194000       0.84837000       0.54946800
     3  O          0.72985000       0.40863000       0.01338900
     4  O          0.22985000       0.59137000       0.51338900
     5  O          0.73067000       0.71643000       0.96807870
     6  O          0.23067000       0.28357000       0.46807870
     7  O          0.60105000       0.21163000       0.14674100
     8  O          0.10105000       0.78837000       0.64674100
     9  O          0.47218000       0.25694000       0.24282120
    10  O         -0.02782000       0.74306000       0.74282120
    11  C          0.60007000       0.20765000       0.00288130
    12  C          0.10007000       0.79235000       0.50288130
    13  H          0.75830000       0.10440000      -0.00220000
    14  H          0.25830000       0.89560000       0.49780000
    15  C          0.64567000       0.54235000       0.96824860
    16  C          0.14567000       0.45765000       0.46824860
    17  C          0.41897000       0.23254000       0.94599870
    18  C          0.91897000       0.76746000       0.44599870
    19  C          0.44827000       0.43085000       0.92566870
    20  C          0.94827000       0.56915000       0.42566870
    21  C          0.30118000       0.49566000       0.87312860
    22  C          0.80118000       0.50434000       0.37312860
    23  H          0.32310000       0.62950000       0.85910000
    24  H          0.82310000       0.37050000       0.35910000
    25  C          0.12259000       0.35636000       0.84260850
    26  C          0.62259000       0.64364000       0.34260850
    27  H          0.02070000       0.39650000       0.80750000
    28  H          0.52070000       0.60350000       0.30750000
    29  C          0.09229000       0.15846000       0.86324840
    30  C          0.59229000       0.84154000       0.36324840
    31  H         -0.03050000       0.06690000       0.84180000
    32  H          0.46950000       0.93310000       0.34180000
    33  C          0.24077000       0.09155000       0.91543860
    34  C          0.74077000       0.90845000       0.41543860
    35  H          0.22070000       0.95700000       0.92920000
    36  H          0.72070000       0.04300000       0.42920000
    37  C          0.55347000       0.06165000       0.10002140
    38  C          0.05347000       0.93835000       0.60002140
    39  H          0.74480000      -0.00140000       0.08900000
    40  H          0.24480000       0.00140000       0.58900000
    41  C          0.45228000       0.15635000       0.19777150
    42  C          0.95228000       0.84365000       0.69777150
    43  C          0.35206000       0.90486000       0.12751130
    44  C          0.85206000       0.09514000       0.62751130
    45  C          0.29086000       0.96385000       0.18517120
    46  C          0.79086000       0.03615000       0.68517120
    47  C          0.10888000       0.84604000       0.22104140
    48  C          0.60888000       0.15396000       0.72104140
    49  H          0.06710000       0.88680000       0.26010000
    50  H          0.56710000       0.11320000       0.76010000
    51  C         -0.00888000       0.66735000       0.19756160
    52  C          0.49112000       0.33265000       0.69756160
    53  H          0.86910000       0.58480000       0.22090000
    54  H          0.36910000       0.41520000       0.72090000
    55  C          0.05318000       0.60945000       0.13930150
    56  C          0.55318000       0.39055000       0.63930150
    57  H         -0.02940000       0.48810000       0.12400000
    58  H          0.47060000       0.51190000       0.62400000
    59  C          0.23367000       0.72665000       0.10336140
    60  C          0.73367000       0.27335000       0.60336140
    61  H          0.27400000       0.68690000       0.06420000
    62  H          0.77400000       0.31310000       0.56420000
