data_NOSYOJ02
_symmetry_space_group_name_H-M    'P1'
_symmetry_Int_Tables_number       1
loop_
_symmetry_equiv_pos_site_id
_symmetry_equiv_pos_as_xyz
1 x,y,z
_cell_length_a                   13.85198
_cell_length_b                   8.14104
_cell_length_c                   11.77726
_cell_angle_alpha                90.0
_cell_angle_beta                 103.6285
_cell_angle_gamma                90.0
loop_
_atom_site_label
_atom_site_type_symbol
_atom_site_fract_x
_atom_site_fract_y
_atom_site_fract_z
     1  C          0.96565100       0.28598150       0.96941900
     2  C          0.03434900       0.28598150       0.53058100
     3  C          0.46565100       0.78598150       0.96941900
     4  C          0.53434900       0.78598150       0.53058100
     5  C          0.03434900       0.71401850       0.03058100
     6  C          0.96565100       0.71401850       0.46941900
     7  C          0.53434900       0.21401850       0.03058100
     8  C          0.46565100       0.21401850       0.46941900
     9  C          0.03436800       0.31703140       0.16674900
    10  C          0.96563200       0.31703140       0.33325100
    11  C          0.53436800       0.81703140       0.16674900
    12  C          0.46563200       0.81703140       0.33325100
    13  C          0.96563200       0.68296860       0.83325100
    14  C          0.03436800       0.68296860       0.66674900
    15  C          0.46563200       0.18296860       0.83325100
    16  C          0.53436800       0.18296860       0.66674900
    17  H          0.06770000       0.41730000       0.20170000
    18  H          0.93230000       0.41730000       0.29830000
    19  H          0.56770000       0.91730000       0.20170000
    20  H          0.43230000       0.91730000       0.29830000
    21  H          0.93230000       0.58270000       0.79830000
    22  H          0.06770000       0.58270000       0.70170000
    23  H          0.43230000       0.08270000       0.79830000
    24  H          0.56770000       0.08270000       0.70170000
    25  C          0.10173800       0.21613140       0.11370900
    26  C          0.89826200       0.21613140       0.38629100
    27  C          0.60173800       0.71613140       0.11370900
    28  C          0.39826200       0.71613140       0.38629100
    29  C          0.89826200       0.78386860       0.88629100
    30  C          0.10173800       0.78386860       0.61370900
    31  C          0.39826200       0.28386860       0.88629100
    32  C          0.60173800       0.28386860       0.61370900
    33  C          0.19274900       0.14663170       0.16470110
    34  C          0.80725100       0.14663170       0.33529890
    35  C          0.69274900       0.64663170       0.16470110
    36  C          0.30725100       0.64663170       0.33529890
    37  C          0.80725100       0.85336830       0.83529890
    38  C          0.19274900       0.85336830       0.66470110
    39  C          0.30725100       0.35336830       0.83529890
    40  C          0.69274900       0.35336830       0.66470110
    41  H          0.22170000       0.16060000       0.24370000
    42  H          0.77830000       0.16060000       0.25630000
    43  H          0.72170000       0.66060000       0.24370000
    44  H          0.27830000       0.66060000       0.25630000
    45  H          0.77830000       0.83940000       0.75630000
    46  H          0.22170000       0.83940000       0.74370000
    47  H          0.27830000       0.33940000       0.75630000
    48  H          0.72170000       0.33940000       0.74370000
    49  C          0.23864110       0.05609180       0.09412130
    50  C          0.76135890       0.05609180       0.40587870
    51  C          0.73864110       0.55609180       0.09412130
    52  C          0.26135890       0.55609180       0.40587870
    53  C          0.76135890       0.94390820       0.90587870
    54  C          0.23864110       0.94390820       0.59412130
    55  C          0.26135890       0.44390820       0.90587870
    56  C          0.73864110       0.44390820       0.59412130
    57  H          0.29970000       0.00750000       0.12630000
    58  H          0.70030000       0.00750000       0.37370000
    59  H          0.79970000       0.50750000       0.12630000
    60  H          0.20030000       0.50750000       0.37370000
    61  H          0.70030000      -0.00750000       0.87370000
    62  H          0.29970000      -0.00750000       0.62630000
    63  H          0.20030000       0.49250000       0.87370000
    64  H          0.79970000       0.49250000       0.62630000
    65  C          0.19660100       0.03568180       0.97769870
    66  C          0.80339900       0.03568180       0.52230130
    67  C          0.69660100       0.53568180       0.97769870
    68  C          0.30339900       0.53568180       0.52230130
    69  C          0.80339900       0.96431820       0.02230130
    70  C          0.19660100       0.96431820       0.47769870
    71  C          0.30339900       0.46431820       0.02230130
    72  C          0.69660100       0.46431820       0.47769870
    73  H          0.22930000       0.97250000       0.93260000
    74  H          0.77070000       0.97250000       0.56740000
    75  H          0.72930000       0.47250000       0.93260000
    76  H          0.27070000       0.47250000       0.56740000
    77  H          0.77070000       0.02750000       0.06740000
    78  H          0.22930000       0.02750000       0.43260000
    79  H          0.27070000       0.52750000       0.06740000
    80  H          0.72930000       0.52750000       0.43260000
    81  C          0.10725110       0.10649150       0.92613890
    82  C          0.89274890       0.10649150       0.57386110
    83  C          0.60725110       0.60649150       0.92613890
    84  C          0.39274890       0.60649150       0.57386110
    85  C          0.89274890       0.89350850       0.07386110
    86  C          0.10725110       0.89350850       0.42613890
    87  C          0.39274890       0.39350850       0.07386110
    88  C          0.60725110       0.39350850       0.42613890
    89  H          0.07930000       0.09420000       0.84670000
    90  H          0.92070000       0.09420000       0.65330000
    91  H          0.57930000       0.59420000       0.84670000
    92  H          0.42070000       0.59420000       0.65330000
    93  H          0.92070000       0.90580000       0.15330000
    94  H          0.07930000       0.90580000       0.34670000
    95  H          0.42070000       0.40580000       0.15330000
    96  H          0.57930000       0.40580000       0.34670000
    97  C          0.06023800       0.19710140      -0.00291900
    98  C          0.93976200       0.19710140       0.50291900
    99  C          0.56023800       0.69710140      -0.00291900
   100  C          0.43976200       0.69710140       0.50291900
   101  C          0.93976200       0.80289860       0.00291900
   102  C          0.06023800       0.80289860       0.49708100
   103  C          0.43976200       0.30289860       0.00291900
   104  C          0.56023800       0.30289860       0.49708100
   105  O          0.90581400       0.30500120       0.87827200
   106  O          0.09418600       0.30500120       0.62172800
   107  O          0.40581400       0.80500120       0.87827200
   108  O          0.59418600       0.80500120       0.62172800
   109  O          0.09418600       0.69499880       0.12172800
   110  O          0.90581400       0.69499880       0.37827200
   111  O          0.59418600       0.19499880       0.12172800
   112  O          0.40581400       0.19499880       0.37827200
   113  O          0.95196500       0.35575100       0.07020700
   114  O          0.04803500       0.35575100       0.42979300
   115  O          0.45196500       0.85575100       0.07020700
   116  O          0.54803500       0.85575100       0.42979300
   117  O          0.04803500       0.64424900       0.92979300
   118  O          0.95196500       0.64424900       0.57020700
   119  O          0.54803500       0.14424900       0.92979300
   120  O          0.45196500       0.14424900       0.57020700
   121  O         -0.00000000       0.22494130       0.25000000
   122  O          0.50000000       0.72494130       0.25000000
   123  O          0.00000000       0.77505870       0.75000000
   124  O          0.50000000       0.27505870       0.75000000
