data_NUKMAH02
_symmetry_space_group_name_H-M    'P1'
_symmetry_Int_Tables_number       1
loop_
_symmetry_equiv_pos_site_id
_symmetry_equiv_pos_as_xyz
1 x,y,z
_cell_length_a                   16.545412
_cell_length_b                   7.58265
_cell_length_c                   22.055315
_cell_angle_alpha                90.0
_cell_angle_beta                 95.206511
_cell_angle_gamma                90.0
loop_
_atom_site_label
_atom_site_type_symbol
_atom_site_fract_x
_atom_site_fract_y
_atom_site_fract_z
     1  C          0.05647100       0.75862000       0.21923800
     2  C          0.44352900       0.75862000       0.78076200
     3  C          0.55647100       0.25862000       0.71923800
     4  C          0.94352900       0.25862000       0.28076200
     5  C          0.94352900       0.24138000       0.78076200
     6  C          0.55647100       0.24138000       0.21923800
     7  C          0.44352900       0.74138000       0.28076200
     8  C          0.05647100       0.74138000       0.71923800
     9  H          0.02660000       0.82660000       0.18870000
    10  H          0.47340000       0.82660000       0.81130000
    11  H          0.52660000       0.32660000       0.68870000
    12  H          0.97340000       0.32660000       0.31130000
    13  H          0.97340000       0.17340000       0.81130000
    14  H          0.52660000       0.17340000       0.18870000
    15  H          0.47340000       0.67340000       0.31130000
    16  H          0.02660000       0.67340000       0.68870000
    17  C          0.02885110       0.74403000       0.27512800
    18  C          0.47114890       0.74403000       0.72487200
    19  C          0.52885110       0.24403000       0.77512800
    20  C          0.97114890       0.24403000       0.22487200
    21  C          0.97114890       0.25597000       0.72487200
    22  C          0.52885110       0.25597000       0.27512800
    23  C          0.47114890       0.75597000       0.22487200
    24  C          0.02885110       0.75597000       0.77512800
    25  H          0.98040000       0.80310000       0.28340000
    26  H          0.51960000       0.80310000       0.71660000
    27  H          0.48040000       0.30310000       0.78340000
    28  H          0.01960000       0.30310000       0.21660000
    29  H          0.01960000       0.19690000       0.71660000
    30  H          0.48040000       0.19690000       0.28340000
    31  H          0.51960000       0.69690000       0.21660000
    32  H          0.98040000       0.69690000       0.78340000
    33  C          0.07159110       0.64153000       0.32126800
    34  C          0.42840890       0.64153000       0.67873200
    35  C          0.57159110       0.14153000       0.82126800
    36  C          0.92840890       0.14153000       0.17873200
    37  C          0.92840890       0.35847000       0.67873200
    38  C          0.57159110       0.35847000       0.32126800
    39  C          0.42840890       0.85847000       0.17873200
    40  C          0.07159110       0.85847000       0.82126800
    41  H          0.05140000       0.63170000       0.36010000
    42  H          0.44860000       0.63170000       0.63990000
    43  H          0.55140000       0.13170000       0.86010000
    44  H          0.94860000       0.13170000       0.13990000
    45  H          0.94860000       0.36830000       0.63990000
    46  H          0.55140000       0.36830000       0.36010000
    47  H          0.44860000       0.86830000       0.13990000
    48  H          0.05140000       0.86830000       0.86010000
    49  C          0.14118110       0.55722000       0.31043800
    50  C          0.35881890       0.55722000       0.68956200
    51  C          0.64118110       0.05722000       0.81043800
    52  C          0.85881890       0.05722000       0.18956200
    53  C          0.85881890       0.44278000       0.68956200
    54  C          0.64118110       0.44278000       0.31043800
    55  C          0.35881890       0.94278000       0.18956200
    56  C          0.14118110       0.94278000       0.81043800
    57  H          0.16920000       0.48890000       0.34180000
    58  H          0.33080000       0.48890000       0.65820000
    59  H          0.66920000      -0.01110000       0.84180000
    60  H          0.83080000      -0.01110000       0.15820000
    61  H          0.83080000       0.51110000       0.65820000
    62  H          0.66920000       0.51110000       0.34180000
    63  H          0.33080000       0.01110000       0.15820000
    64  H          0.16920000       0.01110000       0.84180000
    65  C          0.17302110       0.56972000       0.25225800
    66  C          0.32697890       0.56972000       0.74774200
    67  C          0.67302110       0.06972000       0.75225800
    68  C          0.82697890       0.06972000       0.24774200
    69  C          0.82697890       0.43028000       0.74774200
    70  C          0.67302110       0.43028000       0.25225800
    71  C          0.32697890       0.93028000       0.24774200
    72  C          0.17302110       0.93028000       0.75225800
    73  C          0.35100110       0.42252000       0.17150900
    74  C          0.14899890       0.42252000       0.82849100
    75  C          0.85100110       0.92252000       0.67150900
    76  C          0.64899890       0.92252000       0.32849100
    77  C          0.64899890       0.57748000       0.82849100
    78  C          0.85100110       0.57748000       0.17150900
    79  C          0.14899890       0.07748000       0.32849100
    80  C          0.35100110       0.07748000       0.67150900
    81  H          0.37930000       0.35130000       0.20190000
    82  H          0.12070000       0.35130000       0.79810000
    83  H          0.87930000       0.85130000       0.70190000
    84  H          0.62070000       0.85130000       0.29810000
    85  H          0.62070000       0.64870000       0.79810000
    86  H          0.87930000       0.64870000       0.20190000
    87  H          0.12070000       0.14870000       0.29810000
    88  H          0.37930000       0.14870000       0.70190000
    89  C          0.38188110       0.44343000       0.11694900
    90  C          0.11811890       0.44343000       0.88305100
    91  C          0.88188110       0.94343000       0.61694900
    92  C          0.61811890       0.94343000       0.38305100
    93  C          0.61811890       0.55657000       0.88305100
    94  C          0.88188110       0.55657000       0.11694900
    95  C          0.11811890       0.05657000       0.38305100
    96  C          0.38188110       0.05657000       0.61694900
    97  H          0.43140000       0.38720000       0.10960000
    98  H          0.06860000       0.38720000       0.89040000
    99  H          0.93140000       0.88720000       0.60960000
   100  H          0.56860000       0.88720000       0.39040000
   101  H          0.56860000       0.61280000       0.89040000
   102  H          0.93140000       0.61280000       0.10960000
   103  H          0.06860000       0.11280000       0.39040000
   104  H          0.43140000       0.11280000       0.60960000
   105  C          0.34048110       0.54863000       0.07100900
   106  C          0.15951890       0.54863000       0.92899100
   107  C          0.84048110       0.04863000       0.57100900
   108  C          0.65951890       0.04863000       0.42899100
   109  C          0.65951890       0.45137000       0.92899100
   110  C          0.84048110       0.45137000       0.07100900
   111  C          0.15951890       0.95137000       0.42899100
   112  C          0.34048110       0.95137000       0.57100900
   113  H          0.36240000       0.56230000       0.03290000
   114  H          0.13760000       0.56230000       0.96710000
   115  H          0.86240000       0.06230000       0.53290000
   116  H          0.63760000       0.06230000       0.46710000
   117  H          0.63760000       0.43770000       0.96710000
   118  H          0.86240000       0.43770000       0.03290000
   119  H          0.13760000       0.93770000       0.46710000
   120  H          0.36240000       0.93770000       0.53290000
   121  C          0.26950100       0.63032000       0.08095800
   122  C          0.23049900       0.63032000       0.91904200
   123  C          0.76950100       0.13032000       0.58095800
   124  C          0.73049900       0.13032000       0.41904200
   125  C          0.73049900       0.36968000       0.91904200
   126  C          0.76950100       0.36968000       0.08095800
   127  C          0.23049900       0.86968000       0.41904200
   128  C          0.26950100       0.86968000       0.58095800
   129  H          0.24260000       0.70080000       0.04970000
   130  H          0.25740000       0.70080000       0.95030000
   131  H          0.74260000       0.20080000       0.54970000
   132  H          0.75740000       0.20080000       0.45030000
   133  H          0.75740000       0.29920000       0.95030000
   134  H          0.74260000       0.29920000       0.04970000
   135  H          0.25740000       0.79920000       0.45030000
   136  H          0.24260000       0.79920000       0.54970000
   137  C          0.23512100       0.61162000       0.13755800
   138  C          0.26487900       0.61162000       0.86244200
   139  C          0.73512100       0.11162000       0.63755800
   140  C          0.76487900       0.11162000       0.36244200
   141  C          0.76487900       0.38838000       0.86244200
   142  C          0.73512100       0.38838000       0.13755800
   143  C          0.26487900       0.88838000       0.36244200
   144  C          0.23512100       0.88838000       0.63755800
   145  C          0.16169100       0.69162000       0.14916800
   146  C          0.33830900       0.69162000       0.85083200
   147  C          0.66169100       0.19162000       0.64916800
   148  C          0.83830900       0.19162000       0.35083200
   149  C          0.83830900       0.30838000       0.85083200
   150  C          0.66169100       0.30838000       0.14916800
   151  C          0.33830900       0.80838000       0.35083200
   152  C          0.16169100       0.80838000       0.64916800
   153  C          0.12965100       0.67332000       0.20557800
   154  C          0.37034900       0.67332000       0.79442200
   155  C          0.62965100       0.17332000       0.70557800
   156  C          0.87034900       0.17332000       0.29442200
   157  C          0.87034900       0.32668000       0.79442200
   158  C          0.62965100       0.32668000       0.20557800
   159  C          0.37034900       0.82668000       0.29442200
   160  C          0.12965100       0.82668000       0.70557800
   161  C          0.24525110       0.48802000       0.24016800
   162  C          0.25474890       0.48802000       0.75983200
   163  C          0.74525110      -0.01198000       0.74016800
   164  C          0.75474890      -0.01198000       0.25983200
   165  C          0.75474890       0.51198000       0.75983200
   166  C          0.74525110       0.51198000       0.24016800
   167  C          0.25474890       0.01198000       0.25983200
   168  C          0.24525110       0.01198000       0.74016800
   169  H          0.27360000       0.41840000       0.27100000
   170  H          0.22640000       0.41840000       0.72900000
   171  H          0.77360000       0.91840000       0.77100000
   172  H          0.72640000       0.91840000       0.22900000
   173  H          0.72640000       0.58160000       0.72900000
   174  H          0.77360000       0.58160000       0.27100000
   175  H          0.22640000       0.08160000       0.22900000
   176  H          0.27360000       0.08160000       0.77100000
   177  C          0.27694100       0.50562000       0.18414800
   178  C          0.22305900       0.50562000       0.81585200
   179  C          0.77694100       0.00562000       0.68414800
   180  C          0.72305900       0.00562000       0.31585200
   181  C          0.72305900       0.49438000       0.81585200
   182  C          0.77694100       0.49438000       0.18414800
   183  C          0.22305900      -0.00562000       0.31585200
   184  C          0.27694100      -0.00562000       0.68414800
   185  C          0.11507100       0.79662000       0.10013800
   186  C          0.38492900       0.79662000       0.89986200
   187  C          0.61507100       0.29662000       0.60013800
   188  C          0.88492900       0.29662000       0.39986200
   189  C          0.88492900       0.20338000       0.89986200
   190  C          0.61507100       0.20338000       0.10013800
   191  C          0.38492900       0.70338000       0.39986200
   192  C          0.11507100       0.70338000       0.60013800
   193  O          0.05924700       0.73935170       0.06713600
   194  O          0.44075300       0.73935170       0.93286400
   195  O          0.55924700       0.23935170       0.56713600
   196  O          0.94075300       0.23935170       0.43286400
   197  O          0.94075300       0.26064830       0.93286400
   198  O          0.55924700       0.26064830       0.06713600
   199  O          0.44075300       0.76064830       0.43286400
   200  O          0.05924700       0.76064830       0.56713600
   201  O          0.14234700       0.96242160       0.09805600
   202  O          0.35765300       0.96242160       0.90194400
   203  O          0.64234700       0.46242160       0.59805600
   204  O          0.85765300       0.46242160       0.40194400
   205  O          0.85765300       0.03757840       0.90194400
   206  O          0.64234700       0.03757840       0.09805600
   207  O          0.35765300       0.53757840       0.40194400
   208  O          0.14234700       0.53757840       0.59805600
   209  C          0.09837110       0.08162000       0.05371800
   210  C          0.40162890       0.08162000       0.94628200
   211  C          0.59837110       0.58162000       0.55371800
   212  C          0.90162890       0.58162000       0.44628200
   213  C          0.90162890       0.91838000       0.94628200
   214  C          0.59837110       0.91838000       0.05371800
   215  C          0.40162890       0.41838000       0.44628200
   216  C          0.09837110       0.41838000       0.55371800
   217  H          0.03880000       0.05810000       0.05290000
   218  H          0.46120000       0.05810000       0.94710000
   219  H          0.53880000       0.55810000       0.55290000
   220  H          0.96120000       0.55810000       0.44710000
   221  H          0.96120000       0.94190000       0.94710000
   222  H          0.53880000       0.94190000       0.05290000
   223  H          0.46120000       0.44190000       0.44710000
   224  H          0.03880000       0.44190000       0.55290000
   225  C          0.11585160       0.26473000       0.07742110
   226  C          0.38414840       0.26473000       0.92257890
   227  C          0.61585160       0.76473000       0.57742110
   228  C          0.88414840       0.76473000       0.42257890
   229  C          0.88414840       0.73527000       0.92257890
   230  C          0.61585160       0.73527000       0.07742110
   231  C          0.38414840       0.23527000       0.42257890
   232  C          0.11585160       0.23527000       0.57742110
   233  H          0.10110000       0.27330000       0.11940000
   234  H          0.39890000       0.27330000       0.88060000
   235  H          0.60110000       0.77330000       0.61940000
   236  H          0.89890000       0.77330000       0.38060000
   237  H          0.89890000       0.72670000       0.88060000
   238  H          0.60110000       0.72670000       0.11940000
   239  H          0.39890000       0.22670000       0.38060000
   240  H          0.10110000       0.22670000       0.61940000
   241  H          0.08400000       0.35010000       0.05180000
   242  H          0.41600000       0.35010000       0.94820000
   243  H          0.58400000       0.85010000       0.55180000
   244  H          0.91600000       0.85010000       0.44820000
   245  H          0.91600000       0.64990000       0.94820000
   246  H          0.58400000       0.64990000       0.05180000
   247  H          0.41600000       0.14990000       0.44820000
   248  H          0.08400000       0.14990000       0.55180000
   249  H          0.17380000       0.29030000       0.07650000
   250  H          0.32620000       0.29030000       0.92350000
   251  H          0.67380000       0.79030000       0.57650000
   252  H          0.82620000       0.79030000       0.42350000
   253  H          0.82620000       0.70970000       0.92350000
   254  H          0.67380000       0.70970000       0.07650000
   255  H          0.32620000       0.20970000       0.42350000
   256  H          0.17380000       0.20970000       0.57650000
   257  C          0.12558110       0.04983000       0.99106100
   258  C          0.37441890       0.04983000       0.00893900
   259  C          0.62558110       0.54983000       0.49106100
   260  C          0.87441890       0.54983000       0.50893900
   261  C          0.87441890       0.95017000       0.00893900
   262  C          0.62558110       0.95017000       0.99106100
   263  C          0.37441890       0.45017000       0.50893900
   264  C          0.12558110       0.45017000       0.49106100
   265  H          0.18330000       0.07890000       0.99120000
   266  H          0.31670000       0.07890000       0.00880000
   267  H          0.68330000       0.57890000       0.49120000
   268  H          0.81670000       0.57890000       0.50880000
   269  H          0.81670000       0.92110000       0.00880000
   270  H          0.68330000       0.92110000       0.99120000
   271  H          0.31670000       0.42110000       0.50880000
   272  H          0.18330000       0.42110000       0.49120000
   273  H          0.09390000       0.12430000       0.96140000
   274  H          0.40610000       0.12430000       0.03860000
   275  H          0.59390000       0.62430000       0.46140000
   276  H          0.90610000       0.62430000       0.53860000
   277  H          0.90610000       0.87570000       0.03860000
   278  H          0.59390000       0.87570000       0.96140000
   279  H          0.40610000       0.37570000       0.53860000
   280  H          0.09390000       0.37570000       0.46140000
   281  H          0.11720000       0.92550000       0.98000000
   282  H          0.38280000       0.92550000       0.02000000
   283  H          0.61720000       0.42550000       0.48000000
   284  H          0.88280000       0.42550000       0.52000000
   285  H          0.88280000       0.07450000       0.02000000
   286  H          0.61720000       0.07450000       0.98000000
   287  H          0.38280000       0.57450000       0.52000000
   288  H          0.11720000       0.57450000       0.48000000
