data_NUKMAH03
_symmetry_space_group_name_H-M    'P1'
_symmetry_Int_Tables_number       1
loop_
_symmetry_equiv_pos_site_id
_symmetry_equiv_pos_as_xyz
1 x,y,z
_cell_length_a                   9.9192
_cell_length_b                   8.7342
_cell_length_c                   18.5063
_cell_angle_alpha                90.0
_cell_angle_beta                 116.753
_cell_angle_gamma                90.0
loop_
_atom_site_label
_atom_site_type_symbol
_atom_site_fract_x
_atom_site_fract_y
_atom_site_fract_z
     1  O          0.19353000       0.66553000       0.34150170
     2  O          0.80647000       0.16553000       0.15849830
     3  O          0.80647000       0.33447000       0.65849830
     4  O          0.19353000       0.83447000       0.84150170
     5  O          0.10874180       0.47116190       0.26016110
     6  O          0.89125820       0.97116190       0.23983890
     7  O          0.89125820       0.52883810       0.73983890
     8  O          0.10874180       0.02883810       0.76016110
     9  C          0.32063000       0.42733000       0.38175150
    10  C          0.67937000       0.92733000       0.11824850
    11  C          0.67937000       0.57267000       0.61824850
    12  C          0.32063000       0.07267000       0.88175150
    13  C          0.44303000       0.38883000       0.36745160
    14  C          0.55697000       0.88883000       0.13254840
    15  C          0.55697000       0.61117000       0.63254840
    16  C          0.44303000       0.11117000       0.86745160
    17  C          0.46523000       0.45253000       0.30284180
    18  C          0.53477000       0.95253000       0.19715820
    19  C          0.53477000       0.54747000       0.69715820
    20  C          0.46523000       0.04747000       0.80284180
    21  H          0.39550000       0.52220000       0.26790000
    22  H          0.60450000       0.02220000       0.23210000
    23  H          0.60450000       0.47780000       0.73210000
    24  H          0.39550000       0.97780000       0.76790000
    25  C          0.58604000       0.41344000       0.29152000
    26  C          0.41396000       0.91344000       0.20848000
    27  C          0.41396000       0.58656000       0.70848000
    28  C          0.58604000       0.08656000       0.79152000
    29  H          0.59900000       0.45710000       0.24920000
    30  H          0.40100000       0.95710000       0.25080000
    31  H          0.40100000       0.54290000       0.75080000
    32  H          0.59900000       0.04290000       0.74920000
    33  C          0.69224000       0.30704000       0.34302000
    34  C          0.30776000       0.80704000       0.15698000
    35  C          0.30776000       0.69296000       0.65698000
    36  C          0.69224000       0.19296000       0.84302000
    37  H          0.77380000       0.27980000       0.33390000
    38  H          0.22620000       0.77980000       0.16610000
    39  H          0.22620000       0.72020000       0.66610000
    40  H          0.77380000       0.22020000       0.83390000
    41  C          0.67713000       0.24414000       0.40542000
    42  C          0.32287000       0.74414000       0.09458000
    43  C          0.32287000       0.75586000       0.59458000
    44  C          0.67713000       0.25586000       0.90542000
    45  H          0.74930000       0.17510000       0.43930000
    46  H          0.25070000       0.67510000       0.06070000
    47  H          0.25070000       0.82490000       0.56070000
    48  H          0.74930000       0.32490000       0.93930000
    49  C          0.55263000       0.28203000       0.41975170
    50  C          0.44737000       0.78203000       0.08024830
    51  C          0.44737000       0.71797000       0.58024830
    52  C          0.55263000       0.21797000       0.91975170
    53  C          0.53533000       0.22103000       0.48392180
    54  C          0.46467000       0.72103000       0.01607820
    55  C          0.46467000       0.77897000       0.51607820
    56  C          0.53533000       0.27897000       0.98392180
    57  H          0.60700000       0.15180000       0.51790000
    58  H          0.39300000       0.65180000       0.98210000
    59  H          0.39300000       0.84820000       0.48210000
    60  H          0.60700000       0.34820000       0.01790000
    61  C          0.41553000       0.25863000       0.49984160
    62  C          0.58447000       0.75863000       0.00015840
    63  C          0.58447000       0.74137000       0.50015840
    64  C          0.41553000       0.24137000      -0.00015840
    65  C          0.39874000       0.19694000       0.56654180
    66  C          0.60126000       0.69694000       0.93345820
    67  C          0.60126000       0.80306000       0.43345820
    68  C          0.39874000       0.30306000       0.06654180
    69  H          0.47010000       0.12770000       0.60090000
    70  H          0.52990000       0.62770000       0.89910000
    71  H          0.52990000       0.87230000       0.39910000
    72  H          0.47010000       0.37230000       0.10090000
    73  C          0.28275000       0.23605000       0.58092000
    74  C          0.71725000       0.73605000       0.91908000
    75  C          0.71725000       0.76395000       0.41908000
    76  C          0.28275000       0.26395000       0.08092000
    77  H          0.27530000       0.19540000       0.62550000
    78  H          0.72470000       0.69540000       0.87450000
    79  H          0.72470000       0.80460000       0.37450000
    80  H          0.27530000       0.30460000       0.12550000
    81  C          0.17084000       0.33924000       0.52853000
    82  C          0.82916000       0.83924000       0.97147000
    83  C          0.82916000       0.66076000       0.47147000
    84  C          0.17084000       0.16076000       0.02853000
    85  H          0.08910000       0.36410000       0.53810000
    86  H          0.91090000       0.86410000       0.96190000
    87  H          0.91090000       0.63590000       0.46190000
    88  H          0.08910000       0.13590000       0.03810000
    89  C          0.18243000       0.40134000       0.46472000
    90  C          0.81757000       0.90134000       0.03528000
    91  C          0.81757000       0.59866000       0.53528000
    92  C          0.18243000       0.09866000       0.96472000
    93  H          0.10840000       0.46920000       0.43120000
    94  H          0.89160000       0.96920000       0.06880000
    95  H          0.89160000       0.53080000       0.56880000
    96  H          0.10840000       0.03080000       0.93120000
    97  C          0.30413000       0.36613000       0.44722170
    98  C          0.69587000       0.86613000       0.05277830
    99  C          0.69587000       0.63387000       0.55277830
   100  C          0.30413000       0.13387000       0.94722170
   101  C          0.20393000       0.53613000       0.32679170
   102  C          0.79607000       0.03613000       0.17320830
   103  C          0.79607000       0.46387000       0.67320830
   104  C          0.20393000       0.96387000       0.82679170
   105  C         -0.01503000       0.56283000       0.19885180
   106  C          0.01503000       0.06283000       0.30114820
   107  C          0.01503000       0.43717000       0.80114820
   108  C         -0.01503000       0.93717000       0.69885180
   109  H          0.01600000       0.67030000       0.20300000
   110  H         -0.01600000       0.17030000       0.29700000
   111  H         -0.01600000       0.32970000       0.79700000
   112  H          0.01600000       0.82970000       0.70300000
   113  C          0.96097000       0.49984000       0.11908180
   114  C          0.03903000      -0.00016000       0.38091820
   115  C          0.03903000       0.50016000       0.88091820
   116  C          0.96097000       0.00016000       0.61908180
   117  H          0.05280000       0.50830000       0.11390000
   118  H          0.94720000       0.00830000       0.38610000
   119  H          0.94720000       0.49170000       0.88610000
   120  H          0.05280000      -0.00830000       0.61390000
   121  H          0.88240000       0.55630000       0.07640000
   122  H          0.11760000       0.05630000       0.42360000
   123  H          0.11760000       0.44370000       0.92360000
   124  H          0.88240000       0.94370000       0.57640000
   125  H          0.93230000       0.39400000       0.11560000
   126  H          0.06770000       0.89400000       0.38440000
   127  H          0.06770000       0.60600000       0.88440000
   128  H          0.93230000       0.10600000       0.61560000
   129  C          0.85017000       0.54953000       0.21439190
   130  C          0.14983000       0.04953000       0.28560810
   131  C          0.14983000       0.45047000       0.78560810
   132  C          0.85017000       0.95047000       0.71439190
   133  H          0.82340000       0.44360000       0.21320000
   134  H          0.17660000       0.94360000       0.28680000
   135  H          0.17660000       0.55640000       0.78680000
   136  H          0.82340000       0.05640000       0.71320000
   137  H          0.76710000       0.60440000       0.17340000
   138  H          0.23290000       0.10440000       0.32660000
   139  H          0.23290000       0.39560000       0.82660000
   140  H          0.76710000       0.89560000       0.67340000
   141  H          0.87340000       0.59190000       0.26650000
   142  H          0.12660000       0.09190000       0.23350000
   143  H          0.12660000       0.40810000       0.73350000
   144  H          0.87340000       0.90810000       0.76650000
