data_NUKMAH
_symmetry_space_group_name_H-M    'P1'
_symmetry_Int_Tables_number       1
loop_
_symmetry_equiv_pos_site_id
_symmetry_equiv_pos_as_xyz
1 x,y,z
_cell_length_a                   10.2685
_cell_length_b                   9.0774
_cell_length_c                   30.581
_cell_angle_alpha                90.0
_cell_angle_beta                 90.0
_cell_angle_gamma                90.0
loop_
_atom_site_label
_atom_site_type_symbol
_atom_site_fract_x
_atom_site_fract_y
_atom_site_fract_z
     1  C          0.00513000       0.13624000       0.29651000
     2  C          0.49487000       0.86376000       0.79651000
     3  C          0.50513000       0.36376000       0.70349000
     4  C         -0.00513000       0.63624000       0.20349000
     5  C         -0.00513000       0.86376000       0.70349000
     6  C          0.50513000       0.13624000       0.20349000
     7  C          0.49487000       0.63624000       0.29651000
     8  C          0.00513000       0.36376000       0.79651000
     9  C          0.07344000       0.22344000       0.26911000
    10  C          0.42656000       0.77656000       0.76911000
    11  C          0.57344000       0.27656000       0.73089000
    12  C          0.92656000       0.72344000       0.23089000
    13  C          0.92656000       0.77656000       0.73089000
    14  C          0.57344000       0.22344000       0.23089000
    15  C          0.42656000       0.72344000       0.26911000
    16  C          0.07344000       0.27656000       0.76911000
    17  C          0.19644000       0.27924000       0.28121000
    18  C          0.30356000       0.72076000       0.78121000
    19  C          0.69644000       0.22076000       0.71879000
    20  C          0.80356000       0.77924000       0.21879000
    21  C          0.80356000       0.72076000       0.71879000
    22  C          0.69644000       0.27924000       0.21879000
    23  C          0.30356000       0.77924000       0.28121000
    24  C          0.19644000       0.22076000       0.78121000
    25  C          0.24854000       0.24824000       0.32061000
    26  C          0.25146000       0.75176000       0.82061000
    27  C          0.74854000       0.25176000       0.67939000
    28  C          0.75146000       0.74824000       0.17939000
    29  C          0.75146000       0.75176000       0.67939000
    30  C          0.74854000       0.24824000       0.17939000
    31  C          0.25146000       0.74824000       0.32061000
    32  C          0.24854000       0.25176000       0.82061000
    33  C          0.22733000       0.98454000       0.46141000
    34  C          0.27267000       0.01546000       0.96141000
    35  C          0.72733000       0.51546000       0.53859000
    36  C          0.77267000       0.48454000       0.03859000
    37  C          0.77267000       0.01546000       0.53859000
    38  C          0.72733000       0.98454000       0.03859000
    39  C          0.27267000       0.48454000       0.46141000
    40  C          0.22733000       0.51546000       0.96141000
    41  C          0.16664000       0.88894000       0.48841000
    42  C          0.33336000       0.11106000       0.98841000
    43  C          0.66664000       0.61106000       0.51159000
    44  C          0.83336000       0.38894000       0.01159000
    45  C          0.83336000       0.11106000       0.51159000
    46  C          0.66664000       0.88894000       0.01159000
    47  C          0.33336000       0.38894000       0.48841000
    48  C          0.16664000       0.61106000       0.98841000
    49  C          0.04443000       0.82924000       0.47721000
    50  C          0.45557000       0.17076000       0.97721000
    51  C          0.54443000       0.67076000       0.52279000
    52  C          0.95557000       0.32924000       0.02279000
    53  C          0.95557000       0.17076000       0.52279000
    54  C          0.54443000       0.82924000       0.02279000
    55  C          0.45557000       0.32924000       0.47721000
    56  C          0.04443000       0.67076000       0.97721000
    57  C          0.98527000       0.86624000       0.43931000
    58  C          0.51473000       0.13376000       0.93931000
    59  C          0.48527000       0.63376000       0.56069000
    60  C          0.01473000       0.36624000       0.06069000
    61  C          0.01473000       0.13376000       0.56069000
    62  C          0.48527000       0.86624000       0.06069000
    63  C          0.51473000       0.36624000       0.43931000
    64  C          0.98527000       0.63376000       0.93931000
    65  C         -0.01053000       0.00524000       0.36851000
    66  C          0.51053000      -0.00524000       0.86851000
    67  C          0.48947000       0.49476000       0.63149000
    68  C          0.01053000       0.50524000       0.13149000
    69  C          0.01053000      -0.00524000       0.63149000
    70  C          0.48947000       0.00524000       0.13149000
    71  C          0.51053000       0.50524000       0.36851000
    72  C         -0.01053000       0.49476000       0.86851000
    73  C          0.23293000       0.12064000       0.39151000
    74  C          0.26707000       0.87936000       0.89151000
    75  C          0.73293000       0.37936000       0.60849000
    76  C          0.76707000       0.62064000       0.10849000
    77  C          0.76707000       0.87936000       0.60849000
    78  C          0.73293000       0.12064000       0.10849000
    79  C          0.26707000       0.62064000       0.39151000
    80  C          0.23293000       0.37936000       0.89151000
    81  C          0.05583000       0.09694000       0.33861000
    82  C          0.44417000       0.90306000       0.83861000
    83  C          0.55583000       0.40306000       0.66139000
    84  C          0.94417000       0.59694000       0.16139000
    85  C          0.94417000       0.90306000       0.66139000
    86  C          0.55583000       0.09694000       0.16139000
    87  C          0.44417000       0.59694000       0.33861000
    88  C          0.05583000       0.40306000       0.83861000
    89  C          0.18053000       0.15574000       0.35081000
    90  C          0.31947000       0.84426000       0.85081000
    91  C          0.68053000       0.34426000       0.64919000
    92  C          0.81947000       0.65574000       0.14919000
    93  C          0.81947000       0.84426000       0.64919000
    94  C          0.68053000       0.15574000       0.14919000
    95  C          0.31947000       0.65574000       0.35081000
    96  C          0.18053000       0.34426000       0.85081000
    97  C          0.17003000       0.02674000       0.42051000
    98  C          0.32997000       0.97326000       0.92051000
    99  C          0.67003000       0.47326000       0.57949000
   100  C          0.82997000       0.52674000       0.07949000
   101  C          0.82997000       0.97326000       0.57949000
   102  C          0.67003000       0.02674000       0.07949000
   103  C          0.32997000       0.52674000       0.42051000
   104  C          0.17003000       0.47326000       0.92051000
   105  C          0.04443000       0.96683000       0.40911000
   106  C          0.45557000       0.03317000       0.90911000
   107  C          0.54443000       0.53317000       0.59089000
   108  C          0.95557000       0.46683000       0.09089000
   109  C          0.95557000       0.03317000       0.59089000
   110  C          0.54443000       0.96683000       0.09089000
   111  C          0.45557000       0.46683000       0.40911000
   112  C          0.04443000       0.53317000       0.90911000
   113  C          0.86057000       0.94284000       0.35541000
   114  C          0.63943000       0.05716000       0.85541000
   115  C          0.36057000       0.55716000       0.64459000
   116  C          0.13943000       0.44284000       0.14459000
   117  C          0.13943000       0.05716000       0.64459000
   118  C          0.36057000       0.94284000       0.14459000
   119  C          0.63943000       0.44284000       0.35541000
   120  C          0.86057000       0.55716000       0.85541000
   121  C          0.63647000       0.91704000       0.37491000
   122  C          0.86353000       0.08296000       0.87491000
   123  C          0.13647000       0.58296000       0.62509000
   124  C          0.36353000       0.41704000       0.12509000
   125  C          0.36353000       0.08296000       0.62509000
   126  C          0.13647000       0.91704000       0.12509000
   127  C          0.86353000       0.41704000       0.37491000
   128  C          0.63647000       0.58296000       0.87491000
   129  C          0.56236000       0.01125000       0.34311000
   130  C          0.93764000      -0.01125000       0.84311000
   131  C          0.06236000       0.48875000       0.65689000
   132  C          0.43764000       0.51125000       0.15689000
   133  C          0.43764000      -0.01125000       0.65689000
   134  C          0.06236000       0.01125000       0.15689000
   135  C          0.93764000       0.51125000       0.34311000
   136  C          0.56236000       0.48875000       0.84311000
   137  C          0.57236000       0.90645000       0.41911000
   138  C          0.92764000       0.09355000       0.91911000
   139  C          0.07236000       0.59355000       0.58089000
   140  C          0.42764000       0.40645000       0.08089000
   141  C          0.42764000       0.09355000       0.58089000
   142  C          0.07236000       0.90645000       0.08089000
   143  C          0.92764000       0.40645000       0.41911000
   144  C          0.57236000       0.59355000       0.91911000
   145  O          0.84438000       0.86373000       0.32441000
   146  O          0.65562000       0.13627000       0.82441000
   147  O          0.34438000       0.63627000       0.67559000
   148  O          0.15562000       0.36373000       0.17559000
   149  O          0.15562000       0.13627000       0.67559000
   150  O          0.34438000       0.86373000       0.17559000
   151  O          0.65562000       0.36373000       0.32441000
   152  O          0.84438000       0.63627000       0.82441000
   153  O          0.76538000       0.98242000       0.38281000
   154  O          0.73462000       0.01758000       0.88281000
   155  O          0.26538000       0.51758000       0.61719000
   156  O          0.23462000       0.48242000       0.11719000
   157  O          0.23462000       0.01758000       0.61719000
   158  O          0.26538000       0.98242000       0.11719000
   159  O          0.73462000       0.48242000       0.38281000
   160  O          0.76538000       0.51758000       0.88281000
   161  H          0.92140000       0.09890000       0.28800000
   162  H          0.57860000       0.90110000       0.78800000
   163  H          0.42140000       0.40110000       0.71200000
   164  H          0.07860000       0.59890000       0.21200000
   165  H          0.07860000       0.90110000       0.71200000
   166  H          0.42140000       0.09890000       0.21200000
   167  H          0.57860000       0.59890000       0.28800000
   168  H          0.92140000       0.40110000       0.78800000
   169  H          0.03700000       0.24810000       0.24120000
   170  H          0.46300000       0.75190000       0.74120000
   171  H          0.53700000       0.25190000       0.75880000
   172  H          0.96300000       0.74810000       0.25880000
   173  H          0.96300000       0.75190000       0.75880000
   174  H          0.53700000       0.24810000       0.25880000
   175  H          0.46300000       0.74810000       0.24120000
   176  H          0.03700000       0.25190000       0.74120000
   177  H          0.24390000       0.33930000       0.26080000
   178  H          0.25610000       0.66070000       0.76080000
   179  H          0.74390000       0.16070000       0.73920000
   180  H          0.75610000       0.83930000       0.23920000
   181  H          0.75610000       0.66070000       0.73920000
   182  H          0.74390000       0.33930000       0.23920000
   183  H          0.25610000       0.83930000       0.26080000
   184  H          0.24390000       0.16070000       0.76080000
   185  H          0.33110000       0.28920000       0.32880000
   186  H          0.16890000       0.71080000       0.82880000
   187  H          0.83110000       0.21080000       0.67120000
   188  H          0.66890000       0.78920000       0.17120000
   189  H          0.66890000       0.71080000       0.67120000
   190  H          0.83110000       0.28920000       0.17120000
   191  H          0.16890000       0.78920000       0.32880000
   192  H          0.33110000       0.21080000       0.82880000
   193  H          0.30920000       0.02670000       0.47000000
   194  H          0.19080000       0.97330000       0.97000000
   195  H          0.80920000       0.47330000       0.53000000
   196  H          0.69080000       0.52670000       0.03000000
   197  H          0.69080000       0.97330000       0.53000000
   198  H          0.80920000       0.02670000       0.03000000
   199  H          0.19080000       0.52670000       0.47000000
   200  H          0.30920000       0.47330000       0.97000000
   201  H          0.20850000       0.85970000       0.51510000
   202  H          0.29150000       0.14030000       0.01510000
   203  H          0.70850000       0.64030000       0.48490000
   204  H          0.79150000       0.35970000       0.98490000
   205  H          0.79150000       0.14030000       0.48490000
   206  H          0.70850000       0.85970000       0.98490000
   207  H          0.29150000       0.35970000       0.51510000
   208  H          0.20850000       0.64030000       0.01510000
   209  H          0.00250000       0.76280000       0.49720000
   210  H          0.49750000       0.23720000      -0.00280000
   211  H          0.50250000       0.73720000       0.50280000
   212  H         -0.00250000       0.26280000       0.00280000
   213  H         -0.00250000       0.23720000       0.50280000
   214  H          0.50250000       0.76280000       0.00280000
   215  H          0.49750000       0.26280000       0.49720000
   216  H          0.00250000       0.73720000      -0.00280000
   217  H          0.90260000       0.82330000       0.43200000
   218  H          0.59740000       0.17670000       0.93200000
   219  H          0.40260000       0.67670000       0.56800000
   220  H          0.09740000       0.32330000       0.06800000
   221  H          0.09740000       0.17670000       0.56800000
   222  H          0.40260000       0.82330000       0.06800000
   223  H          0.59740000       0.32330000       0.43200000
   224  H          0.90260000       0.67670000       0.93200000
   225  H          0.31460000       0.16350000       0.40000000
   226  H          0.18540000       0.83650000       0.90000000
   227  H          0.81460000       0.33650000       0.60000000
   228  H          0.68540000       0.66350000       0.10000000
   229  H          0.68540000       0.83650000       0.60000000
   230  H          0.81460000       0.16350000       0.10000000
   231  H          0.18540000       0.66350000       0.40000000
   232  H          0.31460000       0.33650000       0.90000000
   233  H          0.63980000       0.82070000       0.36200000
   234  H          0.86020000       0.17930000       0.86200000
   235  H          0.13980000       0.67930000       0.63800000
   236  H          0.36020000       0.32070000       0.13800000
   237  H          0.36020000       0.17930000       0.63800000
   238  H          0.13980000       0.82070000       0.13800000
   239  H          0.86020000       0.32070000       0.36200000
   240  H          0.63980000       0.67930000       0.86200000
   241  H          0.47850000       0.96920000       0.33710000
   242  H          0.02150000       0.03080000       0.83710000
   243  H          0.97850000       0.53080000       0.66290000
   244  H          0.52150000       0.46920000       0.16290000
   245  H          0.52150000       0.03080000       0.66290000
   246  H          0.97850000       0.96920000       0.16290000
   247  H          0.02150000       0.46920000       0.33710000
   248  H          0.47850000       0.53080000       0.83710000
   249  H          0.61080000       0.01940000       0.31640000
   250  H          0.88920000       0.98060000       0.81640000
   251  H          0.11080000       0.48060000       0.68360000
   252  H          0.38920000       0.51940000       0.18360000
   253  H          0.38920000       0.98060000       0.68360000
   254  H          0.11080000       0.01940000       0.18360000
   255  H          0.88920000       0.51940000       0.31640000
   256  H          0.61080000       0.48060000       0.81640000
   257  H          0.55160000       0.10710000       0.35580000
   258  H          0.94840000       0.89290000       0.85580000
   259  H          0.05160000       0.39290000       0.64420000
   260  H          0.44840000       0.60710000       0.14420000
   261  H          0.44840000       0.89290000       0.64420000
   262  H          0.05160000       0.10710000       0.14420000
   263  H          0.94840000       0.60710000       0.35580000
   264  H          0.55160000       0.39290000       0.85580000
   265  H          0.48760000       0.86290000       0.41630000
   266  H          0.01240000       0.13710000       0.91630000
   267  H         -0.01240000       0.63710000       0.58370000
   268  H          0.51240000       0.36290000       0.08370000
   269  H          0.51240000       0.13710000       0.58370000
   270  H         -0.01240000       0.86290000       0.08370000
   271  H          0.01240000       0.36290000       0.41630000
   272  H          0.48760000       0.63710000       0.91630000
   273  H          0.56410000       0.00390000       0.43100000
   274  H          0.93590000      -0.00390000       0.93100000
   275  H          0.06410000       0.49610000       0.56900000
   276  H          0.43590000       0.50390000       0.06900000
   277  H          0.43590000      -0.00390000       0.56900000
   278  H          0.06410000       0.00390000       0.06900000
   279  H          0.93590000       0.50390000       0.43100000
   280  H          0.56410000       0.49610000       0.93100000
   281  H          0.62490000       0.84730000       0.43820000
   282  H          0.87510000       0.15270000       0.93820000
   283  H          0.12490000       0.65270000       0.56180000
   284  H          0.37510000       0.34730000       0.06180000
   285  H          0.37510000       0.15270000       0.56180000
   286  H          0.12490000       0.84730000       0.06180000
   287  H          0.87510000       0.34730000       0.43820000
   288  H          0.62490000       0.65270000       0.93820000
