data_NUQXAA04
_symmetry_space_group_name_H-M    'P1'
_symmetry_Int_Tables_number       1
loop_
_symmetry_equiv_pos_site_id
_symmetry_equiv_pos_as_xyz
1 x,y,z
_cell_length_a                   19.19044
_cell_length_b                   5.3385612
_cell_length_c                   26.56786
_cell_angle_alpha                90.0
_cell_angle_beta                 90.0
_cell_angle_gamma                90.0
loop_
_atom_site_label
_atom_site_type_symbol
_atom_site_fract_x
_atom_site_fract_y
_atom_site_fract_z
     1  N          0.73276170       0.31587000       0.39187120
     2  N          0.26723830       0.68413000       0.89187120
     3  N          0.76723830       0.31587000       0.89187120
     4  N          0.23276170       0.68413000       0.39187120
     5  C          0.67792000       0.48968000       0.38707150
     6  C          0.32208000       0.51032000       0.88707150
     7  C          0.82208000       0.48968000       0.88707150
     8  C          0.17792000       0.51032000       0.38707150
     9  C          0.63792000       0.52138000       0.34388150
    10  C          0.36208000       0.47862000       0.84388150
    11  C          0.86208000       0.52138000       0.84388150
    12  C          0.13792000       0.47862000       0.34388150
    13  H          0.64530000       0.41690000       0.31640000
    14  H          0.35470000       0.58310000       0.81640000
    15  H          0.85470000       0.41690000       0.81640000
    16  H          0.14530000       0.58310000       0.31640000
    17  C          0.58742000       0.70538000       0.34117150
    18  C          0.41258000       0.29462000       0.84117150
    19  C          0.91258000       0.70538000       0.84117150
    20  C          0.08742000       0.29462000       0.34117150
    21  C          0.57623000       0.86239000       0.38243180
    22  C          0.42377000       0.13761000       0.88243180
    23  C          0.92377000       0.86239000       0.88243180
    24  C          0.07623000       0.13761000       0.38243180
    25  H          0.54310000      -0.01070000       0.38070000
    26  H          0.45690000       0.01070000       0.88070000
    27  H          0.95690000      -0.01070000       0.88070000
    28  H          0.04310000       0.01070000       0.38070000
    29  C          0.61453000       0.82761000       0.42579180
    30  C          0.38547000       0.17239000       0.92579180
    31  C          0.88547000       0.82761000       0.92579180
    32  C          0.11453000       0.17239000       0.42579180
    33  H          0.60660000       0.92970000       0.45360000
    34  H          0.39340000       0.07030000       0.95360000
    35  H          0.89340000       0.92970000       0.95360000
    36  H          0.10660000       0.07030000       0.45360000
    37  C          0.66412000       0.64379000       0.42814170
    38  C          0.33588000       0.35621000       0.92814170
    39  C          0.83588000       0.64379000       0.92814170
    40  C          0.16412000       0.35621000       0.42814170
    41  H          0.68910000       0.62120000       0.45780000
    42  H          0.31090000       0.37880000       0.95780000
    43  H          0.81090000       0.62120000       0.95780000
    44  H          0.18910000       0.37880000       0.45780000
    45  C          0.54632000       0.72829000       0.29372170
    46  C          0.45368000       0.27171000       0.79372170
    47  C          0.95368000       0.72829000       0.79372170
    48  C          0.04632000       0.27171000       0.29372170
    49  O          0.55324180       0.57447000       0.26015130
    50  O          0.44675820       0.42553000       0.76015130
    51  O          0.94675820       0.57447000       0.76015130
    52  O          0.05324180       0.42553000       0.26015130
    53  C          0.49653000       0.94081100       0.28736190
    54  C          0.50347000       0.05918900       0.78736190
    55  C          0.00347000       0.94081100       0.78736190
    56  C         -0.00347000       0.05918900       0.28736190
    57  H          0.47410000       0.92800000       0.25520000
    58  H          0.52590000       0.07200000       0.75520000
    59  H          0.02590000       0.92800000       0.75520000
    60  H          0.97410000       0.07200000       0.25520000
    61  H          0.52140000       0.09650000       0.28930000
    62  H          0.47860000       0.90350000       0.78930000
    63  H          0.97860000       0.09650000       0.78930000
    64  H          0.02140000       0.90350000       0.28930000
    65  H          0.46200000       0.93460000       0.31350000
    66  H          0.53800000       0.06540000       0.81350000
    67  H          0.03800000       0.93460000       0.81350000
    68  H          0.96200000       0.06540000       0.31350000
    69  C          0.74642000       0.15428000       0.35777150
    70  C          0.25358000       0.84572000       0.85777150
    71  C          0.75358000       0.15428000       0.85777150
    72  C          0.24642000       0.84572000       0.35777150
    73  H          0.71850000       0.14990000       0.32920000
    74  H          0.28150000       0.85010000       0.82920000
    75  H          0.78150000       0.14990000       0.82920000
    76  H          0.21850000       0.85010000       0.32920000
    77  C          0.80302000      -0.02108000       0.36174140
    78  C          0.19698000       0.02108000       0.86174140
    79  C          0.69698000      -0.02108000       0.86174140
    80  C          0.30302000       0.02108000       0.36174140
    81  C          0.84582000       0.97232000       0.40460140
    82  C          0.15418000       0.02768000       0.90460140
    83  C          0.65418000       0.97232000       0.90460140
    84  C          0.34582000       0.02768000       0.40460140
    85  C          0.89762000       0.78801000       0.40885150
    86  C          0.10238000       0.21199000       0.90885150
    87  C          0.60238000       0.78801000       0.90885150
    88  C          0.39762000       0.21199000       0.40885150
    89  C          0.90682000       0.61761000       0.37035160
    90  C          0.09318000       0.38239000       0.87035160
    91  C          0.59318000       0.61761000       0.87035160
    92  C          0.40682000       0.38239000       0.37035160
    93  H          0.94070000       0.49410000       0.37330000
    94  H          0.05930000       0.50590000       0.87330000
    95  H          0.55930000       0.49410000       0.87330000
    96  H          0.44070000       0.50590000       0.37330000
    97  C          0.86602000       0.62841000       0.32720170
    98  C          0.13398000       0.37159000       0.82720170
    99  C          0.63398000       0.62841000       0.82720170
   100  C          0.36602000       0.37159000       0.32720170
   101  H          0.87370000       0.51570000       0.30110000
   102  H          0.12630000       0.48430000       0.80110000
   103  H          0.62630000       0.51570000       0.80110000
   104  H          0.37370000       0.48430000       0.30110000
   105  C          0.81452000       0.80482000       0.32308160
   106  C          0.18548000       0.19518000       0.82308160
   107  C          0.68548000       0.80482000       0.82308160
   108  C          0.31452000       0.19518000       0.32308160
   109  H          0.78700000       0.80940000       0.29430000
   110  H          0.21300000       0.19060000       0.79430000
   111  H          0.71300000       0.80940000       0.79430000
   112  H          0.28700000       0.19060000       0.29430000
   113  O          0.83809160       0.13836000       0.44236100
   114  O          0.16190840       0.86164000       0.94236100
   115  O          0.66190840       0.13836000       0.94236100
   116  O          0.33809160       0.86164000       0.44236100
   117  H          0.79830000       0.26710000       0.43320000
   118  H          0.20170000       0.73290000       0.93320000
   119  H          0.70170000       0.26710000       0.93320000
   120  H          0.29830000       0.73290000       0.43320000
   121  O          0.93514160       0.79503000       0.45239120
   122  O          0.06485840       0.20497000       0.95239120
   123  O          0.56485840       0.79503000       0.95239120
   124  O          0.43514160       0.20497000       0.45239120
   125  C          0.98483000       0.60279000       0.45962000
   126  C          0.01517000       0.39721000       0.95962000
   127  C          0.51517000       0.60279000       0.95962000
   128  C          0.48483000       0.39721000       0.45962000
   129  H          0.96200000       0.44290000       0.45830000
   130  H          0.03800000       0.55710000       0.95830000
   131  H          0.53800000       0.44290000       0.95830000
   132  H          0.46200000       0.55710000       0.45830000
   133  H          0.00680000       0.62350000       0.49170000
   134  H         -0.00680000       0.37650000       0.99170000
   135  H          0.49320000       0.62350000       0.99170000
   136  H          0.50680000       0.37650000       0.49170000
   137  H          0.01930000       0.61140000       0.43350000
   138  H          0.98070000       0.38860000       0.93350000
   139  H          0.48070000       0.61140000       0.93350000
   140  H          0.51930000       0.38860000       0.43350000
   141  N          0.49089170       0.81273000       0.10711130
   142  N          0.50910830       0.18727000       0.60711130
   143  N          0.00910830       0.81273000       0.60711130
   144  N          0.99089170       0.18727000       0.10711130
   145  C          0.54562000      -0.00849000       0.11255150
   146  C          0.45438000       0.00849000       0.61255150
   147  C          0.95438000      -0.00849000       0.61255150
   148  C          0.04562000       0.00849000       0.11255150
   149  C          0.58545190       0.01909000       0.15570150
   150  C          0.41454810      -0.01909000       0.65570150
   151  C          0.91454810       0.01909000       0.65570150
   152  C          0.08545190      -0.01909000       0.15570150
   153  H          0.57810000       0.91260000       0.18290000
   154  H          0.42190000       0.08740000       0.68290000
   155  H          0.92190000       0.91260000       0.68290000
   156  H          0.07810000       0.08740000       0.18290000
   157  C          0.63632000       0.20458000       0.15866150
   158  C          0.36368000       0.79542000       0.65866150
   159  C          0.86368000       0.20458000       0.65866150
   160  C          0.13632000       0.79542000       0.15866150
   161  C          0.64712000       0.36079000       0.11801170
   162  C          0.35288000       0.63921000       0.61801170
   163  C          0.85288000       0.36079000       0.61801170
   164  C          0.14712000       0.63921000       0.11801170
   165  H          0.68030000       0.48750000       0.11990000
   166  H          0.31970000       0.51250000       0.61990000
   167  H          0.81970000       0.48750000       0.61990000
   168  H          0.18030000       0.51250000       0.11990000
   169  C          0.60872000       0.32869000       0.07452170
   170  C          0.39128000       0.67131000       0.57452170
   171  C          0.89128000       0.32869000       0.57452170
   172  C          0.10872000       0.67131000       0.07452170
   173  H          0.61700000       0.43090000       0.04680000
   174  H          0.38300000       0.56910000       0.54680000
   175  H          0.88300000       0.43090000       0.54680000
   176  H          0.11700000       0.56910000       0.04680000
   177  C          0.55822000       0.14589000       0.07194170
   178  C          0.44178000       0.85411000       0.57194170
   179  C          0.94178000       0.14589000       0.57194170
   180  C          0.05822000       0.85411000       0.07194170
   181  H          0.53240000       0.12620000       0.04260000
   182  H          0.46760000       0.87380000       0.54260000
   183  H          0.96760000       0.12620000       0.54260000
   184  H          0.03240000       0.87380000       0.04260000
   185  C          0.67722000       0.22489000       0.20644170
   186  C          0.32278000       0.77511000       0.70644170
   187  C          0.82278000       0.22489000       0.70644170
   188  C          0.17722000       0.77511000       0.20644170
   189  O          0.67061180       0.06957000       0.23932130
   190  O          0.32938820       0.93043000       0.73932130
   191  O          0.82938820       0.06957000       0.73932130
   192  O          0.17061180       0.93043000       0.23932130
   193  C          0.72753000       0.43701000       0.21282190
   194  C          0.27247000       0.56299000       0.71282190
   195  C          0.77247000       0.43701000       0.71282190
   196  C          0.22753000       0.56299000       0.21282190
   197  H          0.70230000       0.59240000       0.21380000
   198  H          0.29770000       0.40760000       0.71380000
   199  H          0.79770000       0.59240000       0.71380000
   200  H          0.20230000       0.40760000       0.21380000
   201  H          0.75950000       0.43900000       0.18510000
   202  H          0.24050000       0.56100000       0.68510000
   203  H          0.74050000       0.43900000       0.68510000
   204  H          0.25950000       0.56100000       0.18510000
   205  H          0.75280000       0.41580000       0.24370000
   206  H          0.24720000       0.58420000       0.74370000
   207  H          0.74720000       0.41580000       0.74370000
   208  H          0.25280000       0.58420000       0.24370000
   209  C          0.47692000       0.65471000       0.14214160
   210  C          0.52308000       0.34529000       0.64214160
   211  C          0.02308000       0.65471000       0.64214160
   212  C          0.97692000       0.34529000       0.14214160
   213  H          0.50370000       0.65690000       0.17130000
   214  H          0.49630000       0.34310000       0.67130000
   215  H         -0.00370000       0.65690000       0.67130000
   216  H          0.00370000       0.34310000       0.17130000
   217  C          0.42122000       0.47401000       0.13805150
   218  C          0.57878000       0.52599000       0.63805150
   219  C          0.07878000       0.47401000       0.63805150
   220  C          0.92122000       0.52599000       0.13805150
   221  C          0.37922000       0.46321000       0.09519150
   222  C          0.62078000       0.53679000       0.59519150
   223  C          0.12078000       0.46321000       0.59519150
   224  C          0.87922000       0.53679000       0.09519150
   225  C          0.32692000       0.28069000       0.09223160
   226  C          0.67308000       0.71931000       0.59223160
   227  C          0.17308000       0.28069000       0.59223160
   228  C          0.82692000       0.71931000       0.09223160
   229  C          0.31803000       0.11421000       0.13109180
   230  C          0.68197000       0.88579000       0.63109180
   231  C          0.18197000       0.11421000       0.63109180
   232  C          0.81803000       0.88579000       0.13109180
   233  H          0.28420000      -0.00980000       0.12860000
   234  H          0.71580000       0.00980000       0.62860000
   235  H          0.21580000      -0.00980000       0.62860000
   236  H          0.78420000       0.00980000       0.12860000
   237  C          0.35882000       0.12911000       0.17392180
   238  C          0.64118000       0.87089000       0.67392180
   239  C          0.14118000       0.12911000       0.67392180
   240  C          0.85882000       0.87089000       0.17392180
   241  H          0.35170000       0.01670000       0.20020000
   242  H          0.64830000      -0.01670000       0.70020000
   243  H          0.14830000       0.01670000       0.70020000
   244  H          0.85170000      -0.01670000       0.20020000
   245  C          0.40922000       0.30732000       0.17789170
   246  C          0.59078000       0.69268000       0.67789170
   247  C          0.09078000       0.30732000       0.67789170
   248  C          0.90922000       0.69268000       0.17789170
   249  H          0.43580000       0.31870000       0.20710000
   250  H          0.56420000       0.68130000       0.70710000
   251  H          0.06420000       0.31870000       0.70710000
   252  H          0.93580000       0.68130000       0.20710000
   253  O          0.38787190       0.62312000       0.05600120
   254  O          0.61212810       0.37688000       0.55600120
   255  O          0.11212810       0.62312000       0.55600120
   256  O          0.88787190       0.37688000       0.05600120
   257  H          0.42530000       0.72588000       0.06320000
   258  H          0.57470000       0.27412000       0.56320000
   259  H          0.07470000       0.72588000       0.56320000
   260  H          0.92530000       0.27412000       0.06320000
   261  O          0.28893190       0.28712000       0.04865120
   262  O          0.71106810       0.71288000       0.54865120
   263  O          0.21106810       0.28712000       0.54865120
   264  O          0.78893190       0.71288000       0.04865120
   265  C          0.23773000       0.09478600       0.04242000
   266  C          0.76227000       0.90521400       0.54242000
   267  C          0.26227000       0.09478600       0.54242000
   268  C          0.73773000       0.90521400       0.04242000
   269  H          0.26030000       0.93450000       0.04100000
   270  H          0.73970000       0.06550000       0.54100000
   271  H          0.23970000       0.93450000       0.54100000
   272  H          0.76030000       0.06550000       0.04100000
   273  H          0.21250000       0.12260000       0.01170000
   274  H          0.78750000       0.87740000       0.51170000
   275  H          0.28750000       0.12260000       0.51170000
   276  H          0.71250000       0.87740000       0.01170000
   277  H          0.20590000       0.09820000       0.07030000
   278  H          0.79410000       0.90180000       0.57030000
   279  H          0.29410000       0.09820000       0.57030000
   280  H          0.70590000       0.90180000       0.07030000
