data_NUQXAA
_symmetry_space_group_name_H-M    'P1'
_symmetry_Int_Tables_number       1
loop_
_symmetry_equiv_pos_site_id
_symmetry_equiv_pos_as_xyz
1 x,y,z
_cell_length_a                   19.000919
_cell_length_b                   5.28149
_cell_length_c                   25.6115
_cell_angle_alpha                90.0
_cell_angle_beta                 90.0
_cell_angle_gamma                90.0
loop_
_atom_site_label
_atom_site_type_symbol
_atom_site_fract_x
_atom_site_fract_y
_atom_site_fract_z
     1  O          0.39112900       0.11324000       0.21380700
     2  O          0.60887100       0.88676000       0.71380700
     3  O          0.10887100       0.61324000       0.71380700
     4  O          0.89112900       0.38676000       0.21380700
     5  H          0.36410000      -0.00070000       0.22220000
     6  H          0.63590000       0.00070000       0.72220000
     7  H          0.13590000       0.49930000       0.72220000
     8  H          0.86410000       0.50070000       0.22220000
     9  O          0.48975900       0.45974000       0.20557700
    10  O          0.51024100       0.54026000       0.70557700
    11  O          0.01024100       0.95974000       0.70557700
    12  O          0.98975900       0.04026000       0.20557700
    13  O          0.09827900       0.71596000       0.40335700
    14  O          0.90172100       0.28404000       0.90335700
    15  O          0.40172100       0.21596000       0.90335700
    16  O          0.59827900       0.78404000       0.40335700
    17  N          0.28936110       0.91086000       0.26896800
    18  N          0.71063890       0.08914000       0.76896800
    19  N          0.21063890       0.41086000       0.76896800
    20  N          0.78936110       0.58914000       0.26896800
    21  C          0.35866120       0.26145000       0.29982900
    22  C          0.64133880       0.73855000       0.79982900
    23  C          0.14133880       0.76145000       0.79982900
    24  C          0.85866120       0.23855000       0.29982900
    25  C          0.39989130       0.27385000       0.25465100
    26  C          0.60010870       0.72615000       0.75465100
    27  C          0.10010870       0.77385000       0.75465100
    28  C          0.89989130       0.22615000       0.25465100
    29  C          0.45215120       0.46355000       0.25067100
    30  C          0.54784880       0.53645000       0.75067100
    31  C          0.04784880       0.96355000       0.75067100
    32  C          0.95215120       0.03645000       0.25067100
    33  C          0.46132130       0.63265000       0.29101100
    34  C          0.53867870       0.36735000       0.79101100
    35  C          0.03867870       0.13265000       0.79101100
    36  C          0.96132130       0.86735000       0.29101100
    37  H          0.49510000       0.75920000       0.28800000
    38  H          0.50490000       0.24080000       0.78800000
    39  H          0.00490000       0.25920000       0.78800000
    40  H         -0.00490000       0.74080000       0.28800000
    41  C          0.42063120       0.61695000       0.33645110
    42  C          0.57936880       0.38305000       0.83645110
    43  C          0.07936880       0.11695000       0.83645110
    44  C          0.92063120       0.88305000       0.33645110
    45  H          0.42780000       0.72990000       0.36380000
    46  H          0.57220000       0.27010000       0.86380000
    47  H          0.07220000       0.22990000       0.86380000
    48  H          0.92780000       0.77010000       0.36380000
    49  C          0.37008120       0.43285000       0.34016100
    50  C          0.62991880       0.56715000       0.84016100
    51  C          0.12991880       0.93285000       0.84016100
    52  C          0.87008120       0.06715000       0.34016100
    53  H          0.34290000       0.42220000       0.37030000
    54  H          0.65710000       0.57780000       0.87030000
    55  H          0.15710000       0.92220000       0.87030000
    56  H          0.84290000       0.07780000       0.37030000
    57  C          0.30271120       0.07495000       0.30455100
    58  C          0.69728880       0.92505000       0.80455100
    59  C          0.19728880       0.57495000       0.80455100
    60  C          0.80271120       0.42505000       0.30455100
    61  H          0.27540000       0.07450000       0.33470000
    62  H          0.72460000       0.92550000       0.83470000
    63  H          0.22460000       0.57450000       0.83470000
    64  H          0.77540000       0.42550000       0.33470000
    65  C          0.23366120       0.73255000       0.27611100
    66  C          0.76633880       0.26745000       0.77611100
    67  C          0.26633880       0.23255000       0.77611100
    68  C          0.73366120       0.76745000       0.27611100
    69  C          0.18793120       0.73205000       0.31844900
    70  C          0.81206880       0.26795000       0.81844900
    71  C          0.31206880       0.23205000       0.81844900
    72  C          0.68793120       0.76795000       0.31844900
    73  H          0.19210000       0.85590000       0.34410000
    74  H          0.80790000       0.14410000       0.84410000
    75  H          0.30790000       0.35590000       0.84410000
    76  H          0.69210000       0.64410000       0.34410000
    77  C          0.13602130       0.54775000       0.32270900
    78  C          0.86397870       0.45225000       0.82270900
    79  C          0.36397870       0.04775000       0.82270900
    80  C          0.63602130       0.95225000       0.32270900
    81  C          0.12758130       0.36865000       0.28332100
    82  C          0.87241870       0.63135000       0.78332100
    83  C          0.37241870       0.86865000       0.78332100
    84  C          0.62758130       0.13135000       0.28332100
    85  H          0.09230000       0.24730000       0.28570000
    86  H          0.90770000       0.75270000       0.78570000
    87  H          0.40770000       0.74730000       0.78570000
    88  H          0.59230000       0.25270000       0.28570000
    89  C          0.17201130       0.37245000       0.24059100
    90  C          0.82798870       0.62755000       0.74059100
    91  C          0.32798870       0.87245000       0.74059100
    92  C          0.67201130       0.12755000       0.24059100
    93  H          0.16610000       0.25490000       0.21390000
    94  H          0.83390000       0.74510000       0.71390000
    95  H          0.33390000       0.75490000       0.71390000
    96  H          0.66610000       0.24510000       0.21390000
    97  C          0.22515130       0.54985000       0.23729100
    98  C          0.77484870       0.45015000       0.73729100
    99  C          0.27484870       0.04985000       0.73729100
   100  C          0.72515130       0.95015000       0.23729100
   101  H          0.25560000       0.54760000       0.20890000
   102  H          0.74440000       0.45240000       0.70890000
   103  H          0.24440000       0.04760000       0.70890000
   104  H          0.75560000       0.95240000       0.20890000
   105  C          0.09141120       0.54955000       0.37094100
   106  C          0.90858880       0.45045000       0.87094100
   107  C          0.40858880       0.04955000       0.87094100
   108  C          0.59141120       0.95045000       0.37094100
   109  C          0.03964130       0.33945000       0.37807100
   110  C          0.96035870       0.66055000       0.87807100
   111  C          0.46035870       0.83945000       0.87807100
   112  C          0.53964130       0.16055000       0.37807100
   113  H          0.06440000       0.18300000       0.38310000
   114  H          0.93560000       0.81700000       0.88310000
   115  H          0.43560000       0.68300000       0.88310000
   116  H          0.56440000       0.31700000       0.38310000
   117  H          0.01040000       0.32690000       0.34760000
   118  H          0.98960000       0.67310000       0.84760000
   119  H          0.48960000       0.82690000       0.84760000
   120  H          0.51040000       0.17310000       0.34760000
   121  H          0.01080000       0.37370000       0.40810000
   122  H          0.98920000       0.62630000       0.90810000
   123  H          0.48920000       0.87370000       0.90810000
   124  H          0.51080000       0.12630000       0.40810000
   125  C          0.54116130       0.65886000       0.19896110
   126  C          0.45883870       0.34114000       0.69896110
   127  C          0.95883870       0.15886000       0.69896110
   128  C          0.04116130       0.84114000       0.19896110
   129  H          0.51790000       0.82010000       0.19940000
   130  H          0.48210000       0.17990000       0.69940000
   131  H          0.98210000       0.32010000       0.69940000
   132  H          0.01790000       0.67990000       0.19940000
   133  H          0.56500000       0.63690000       0.16620000
   134  H          0.43500000       0.36310000       0.66620000
   135  H          0.93500000       0.13690000       0.66620000
   136  H          0.06500000       0.86310000       0.16620000
   137  H          0.57480000       0.65160000       0.22690000
   138  H          0.42520000       0.34840000       0.72690000
   139  H          0.92520000       0.15160000       0.72690000
   140  H          0.07480000       0.84840000       0.22690000
   141  O          0.57742900       0.10664000       0.10888700
   142  O          0.42257100       0.89336000       0.60888700
   143  O          0.92257100       0.60664000       0.60888700
   144  O          0.07742900       0.39336000       0.10888700
   145  H          0.54240000       0.01930000       0.10390000
   146  H          0.45760000      -0.01930000       0.60390000
   147  H          0.95760000       0.51930000       0.60390000
   148  H          0.04240000       0.48070000       0.10390000
   149  O          0.67991900       0.43504000       0.11644700
   150  O          0.32008100       0.56496000       0.61644700
   151  O          0.82008100       0.93504000       0.61644700
   152  O          0.17991900       0.06496000       0.11644700
   153  O          0.28331900       0.70044000       0.92152300
   154  O          0.71668100       0.29956000       0.42152300
   155  O          0.21668100       0.20044000       0.42152300
   156  O          0.78331900       0.79956000       0.92152300
   157  N          0.46955100       0.93264000       0.05726800
   158  N          0.53044900       0.06736000       0.55726800
   159  N          0.03044900       0.43264000       0.55726800
   160  N          0.96955100       0.56736000       0.05726800
   161  C          0.53900120       0.27815000       0.02662900
   162  C          0.46099880       0.72185000       0.52662900
   163  C          0.96099880       0.77815000       0.52662900
   164  C          0.03900120       0.22185000       0.02662900
   165  C          0.58412120       0.27395000       0.07013900
   166  C          0.41587880       0.72605000       0.57013900
   167  C          0.91587880       0.77395000       0.57013900
   168  C          0.08412120       0.22605000       0.07013900
   169  C          0.63869120       0.45556000       0.07313100
   170  C          0.36130880       0.54444000       0.57313100
   171  C          0.86130880       0.95556000       0.57313100
   172  C          0.13869120       0.04444000       0.07313100
   173  C          0.64670130       0.63235000       0.03419100
   174  C          0.35329870       0.36765000       0.53419100
   175  C          0.85329870       0.13235000       0.53419100
   176  C          0.14670130       0.86765000       0.03419100
   177  H          0.68230000       0.75260000       0.03670000
   178  H          0.31770000       0.24740000       0.53670000
   179  H          0.81770000       0.25260000       0.53670000
   180  H          0.18230000       0.74740000       0.03670000
   181  C          0.60212130       0.63365000       0.99092900
   182  C          0.39787870       0.36635000       0.49092900
   183  C          0.89787870       0.13365000       0.49092900
   184  C          0.10212130       0.86635000       0.99092900
   185  H          0.60820000       0.75340000       0.96470000
   186  H          0.39180000       0.24660000       0.46470000
   187  H          0.89180000       0.25340000       0.46470000
   188  H          0.10820000       0.74660000       0.96470000
   189  C          0.54952120       0.45885000       0.98718890
   190  C          0.45047880       0.54115000       0.48718890
   191  C          0.95047880       0.95885000       0.48718890
   192  C          0.04952120       0.04115000       0.98718890
   193  H          0.52020000       0.45930000       0.95810000
   194  H          0.47980000       0.54070000       0.45810000
   195  H          0.97980000       0.95930000       0.45810000
   196  H          0.02020000       0.04070000       0.95810000
   197  C          0.48072130       0.10285000       0.02290100
   198  C          0.51927870       0.89715000       0.52290100
   199  C          0.01927870       0.60285000       0.52290100
   200  C          0.98072130       0.39715000       0.02290100
   201  H          0.45040000       0.11460000       0.99450000
   202  H          0.54960000       0.88540000       0.49450000
   203  H          0.04960000       0.61460000       0.49450000
   204  H          0.95040000       0.38540000       0.99450000
   205  C          0.41354120       0.75715000       0.05206100
   206  C          0.58645880       0.24285000       0.55206100
   207  C          0.08645880       0.25715000       0.55206100
   208  C          0.91354120       0.74285000       0.05206100
   209  C          0.37142120       0.73805000       0.00758100
   210  C          0.62857880       0.26195000       0.50758100
   211  C          0.12857880       0.23805000       0.50758100
   212  C          0.87142120       0.76195000       0.00758100
   213  H          0.37760000       0.85170000       0.98020000
   214  H          0.62240000       0.14830000       0.48020000
   215  H          0.12240000       0.35170000       0.48020000
   216  H          0.87760000       0.64830000       0.98020000
   217  C          0.32005120       0.54975000       0.00376100
   218  C          0.67994880       0.45025000       0.50376100
   219  C          0.17994880       0.04975000       0.50376100
   220  C          0.82005120       0.95025000       0.00376100
   221  C          0.31051130       0.38185000       0.04492100
   222  C          0.68948870       0.61815000       0.54492100
   223  C          0.18948870       0.88185000       0.54492100
   224  C          0.81051130       0.11815000       0.04492100
   225  H          0.27650000       0.25570000       0.04250000
   226  H          0.72350000       0.74430000       0.54250000
   227  H          0.22350000       0.75570000       0.54250000
   228  H          0.77650000       0.24430000       0.04250000
   229  C          0.35141130       0.40136000       0.08959100
   230  C          0.64858870       0.59864000       0.58959100
   231  C          0.14858870       0.90136000       0.58959100
   232  C          0.85141130       0.09864000       0.08959100
   233  H          0.34490000       0.28930000       0.11720000
   234  H          0.65510000       0.71070000       0.61720000
   235  H          0.15510000       0.78930000       0.61720000
   236  H          0.84490000       0.21070000       0.11720000
   237  C          0.40224120       0.58975000       0.09274100
   238  C          0.59775880       0.41025000       0.59274100
   239  C          0.09775880       0.08975000       0.59274100
   240  C          0.90224120       0.91025000       0.09274100
   241  H          0.42930000       0.60360000       0.12290000
   242  H          0.57070000       0.39640000       0.62290000
   243  H          0.07070000       0.10360000       0.62290000
   244  H          0.92930000       0.89640000       0.12290000
   245  C          0.27761130       0.53635000       0.95481890
   246  C          0.72238870       0.46365000       0.45481890
   247  C          0.22238870       0.03635000       0.45481890
   248  C          0.77761130       0.96365000       0.95481890
   249  C          0.22700130       0.32265000       0.94853890
   250  C          0.77299870       0.67735000       0.44853890
   251  C          0.27299870       0.82265000       0.44853890
   252  C          0.72700130       0.17735000       0.94853890
   253  H          0.20200000       0.34150000       0.91620000
   254  H          0.79800000       0.65850000       0.41620000
   255  H          0.29800000       0.84150000       0.41620000
   256  H          0.70200000       0.15850000       0.91620000
   257  H          0.19410000       0.32360000       0.97700000
   258  H          0.80590000       0.67640000       0.47700000
   259  H          0.30590000       0.82360000       0.47700000
   260  H          0.69410000       0.17640000       0.97700000
   261  H          0.25230000       0.16520000       0.94840000
   262  H          0.74770000       0.83480000       0.44840000
   263  H          0.24770000       0.66520000       0.44840000
   264  H          0.75230000       0.33480000       0.94840000
   265  C          0.73148130       0.62465000       0.12282110
   266  C          0.26851870       0.37535000       0.62282110
   267  C          0.76851870       0.12465000       0.62282110
   268  C          0.23148130       0.87535000       0.12282110
   269  H          0.76270000       0.62350000       0.09330000
   270  H          0.23730000       0.37650000       0.59330000
   271  H          0.73730000       0.12350000       0.59330000
   272  H          0.26270000       0.87650000       0.09330000
   273  H          0.75790000       0.59230000       0.15410000
   274  H          0.24210000       0.40770000       0.65410000
   275  H          0.74210000       0.09230000       0.65410000
   276  H          0.25790000       0.90770000       0.15410000
   277  H          0.70900000       0.78700000       0.12540000
   278  H          0.29100000       0.21300000       0.62540000
   279  H          0.79100000       0.28700000       0.62540000
   280  H          0.20900000       0.71300000       0.12540000
