data_NUQXAA02
_symmetry_space_group_name_H-M    'P1'
_symmetry_Int_Tables_number       1
loop_
_symmetry_equiv_pos_site_id
_symmetry_equiv_pos_as_xyz
1 x,y,z
_cell_length_a                   4.87735
_cell_length_b                   13.754114
_cell_length_c                   20.395018
_cell_angle_alpha                90.0
_cell_angle_beta                 90.0
_cell_angle_gamma                90.0
loop_
_atom_site_label
_atom_site_type_symbol
_atom_site_fract_x
_atom_site_fract_y
_atom_site_fract_z
     1  O          0.58045000       0.96412000       0.02211100
     2  O          0.91955000       0.03588000       0.52211100
     3  O          0.08045000       0.53588000       0.97788900
     4  O          0.41955000       0.46412000       0.47788900
     5  H          0.45550000       0.94520000       0.05631000
     6  H          0.04450000       0.05480000       0.55631000
     7  H          0.95550000       0.55480000       0.94369000
     8  H          0.54450000       0.44520000       0.44369000
     9  O          0.93624000       0.04607180       0.94448900
    10  O          0.56376000       0.95392820       0.44448900
    11  O          0.43624000       0.45392820       0.05551100
    12  O          0.06376000       0.54607180       0.55551100
    13  O          0.51883000       0.64682000       0.19215140
    14  O         -0.01883000       0.35318000       0.69215140
    15  O          0.01883000       0.85318000       0.80784860
    16  O          0.48117000       0.14682000       0.30784860
    17  N          0.33426000       0.95742000       0.13270120
    18  N          0.16574000       0.04258000       0.63270120
    19  N          0.83426000       0.54258000       0.86729880
    20  N          0.66574000       0.45742000       0.36729880
    21  C          0.68437000       0.07262000       0.10955140
    22  C          0.81563000       0.92738000       0.60955140
    23  C          0.18437000       0.42738000       0.89044860
    24  C          0.31563000       0.57262000       0.39044860
    25  C          0.72447000       0.03873000       0.04729150
    26  C          0.77553000       0.96127000       0.54729150
    27  C          0.22447000       0.46127000       0.95270850
    28  C          0.27553000       0.53873000       0.45270850
    29  C          0.92077000       0.08423000       0.00679140
    30  C          0.57923000       0.91577000       0.50679140
    31  C          0.42077000       0.41577000      -0.00679140
    32  C          0.07923000       0.58423000       0.49320860
    33  C          0.07727000       0.15863000       0.03028160
    34  C          0.42273000       0.84137000       0.53028160
    35  C          0.57727000       0.34137000       0.96971840
    36  C          0.92273000       0.65863000       0.46971840
    37  H          0.20920000       0.18700000       0.00350000
    38  H          0.29080000       0.81300000       0.50350000
    39  H          0.70920000       0.31300000      -0.00350000
    40  H          0.79080000       0.68700000       0.49650000
    41  C          0.04147000       0.19223000       0.09364170
    42  C          0.45853000       0.80777000       0.59364170
    43  C          0.54147000       0.30777000       0.90635830
    44  C          0.95853000       0.69223000       0.40635830
    45  H          0.14750000       0.24330000       0.10940000
    46  H          0.35250000       0.75670000       0.60940000
    47  H          0.64750000       0.25670000       0.89060000
    48  H          0.85250000       0.74330000       0.39060000
    49  C          0.84617000       0.14912000       0.13329170
    50  C          0.65383000       0.85088000       0.63329170
    51  C          0.34617000       0.35088000       0.86670830
    52  C          0.15383000       0.64912000       0.36670830
    53  H          0.82200000       0.17100000       0.17600000
    54  H          0.67800000       0.82900000       0.67600000
    55  H          0.32200000       0.32900000       0.82400000
    56  H          0.17800000       0.67100000       0.32400000
    57  C          0.48307000       0.02803000       0.15217140
    58  C          0.01693000       0.97197000       0.65217140
    59  C         -0.01693000       0.47197000       0.84782860
    60  C          0.51693000       0.52803000       0.34782860
    61  H          0.46170000       0.05130000       0.19470000
    62  H          0.03830000       0.94870000       0.69470000
    63  H          0.96170000       0.44870000       0.80530000
    64  H          0.53830000       0.55130000       0.30530000
    65  C          0.13437000       0.91323000       0.17428150
    66  C          0.36563000       0.08677000       0.67428150
    67  C          0.63437000       0.58677000       0.82571850
    68  C          0.86563000       0.41323000       0.32571850
    69  C          0.06567000       0.94543000       0.23775140
    70  C          0.43433000       0.05457000       0.73775140
    71  C          0.56567000       0.55457000       0.76224860
    72  C          0.93433000       0.44543000       0.26224860
    73  H          0.15190000      -0.00030000       0.25550000
    74  H          0.34810000       0.00030000       0.75550000
    75  H          0.65190000       0.50030000       0.74450000
    76  H          0.84810000       0.49970000       0.24450000
    77  C          0.87133000       0.89653000       0.27330150
    78  C          0.62867000       0.10347000       0.77330150
    79  C          0.37133000       0.60347000       0.72669850
    80  C          0.12867000       0.39653000       0.22669850
    81  H          0.82910000       0.91700000       0.31560000
    82  H          0.67090000       0.08300000       0.81560000
    83  H          0.32910000       0.58300000       0.68440000
    84  H          0.17090000       0.41700000       0.18440000
    85  C          0.73792000       0.81713000       0.24692180
    86  C          0.76208000       0.18287000       0.74692180
    87  C          0.23792000       0.68287000       0.75307820
    88  C          0.26208000       0.31713000       0.25307820
    89  H          0.60590000       0.78480000       0.27150000
    90  H          0.89410000       0.21520000       0.77150000
    91  H          0.10590000       0.71520000       0.72850000
    92  H          0.39410000       0.28480000       0.22850000
    93  C          0.79882000       0.78523000       0.18414180
    94  C          0.70118000       0.21477000       0.68414180
    95  C          0.29882000       0.71477000       0.81585820
    96  C          0.20118000       0.28523000       0.31585820
    97  C         -0.00477000       0.83453000       0.14801160
    98  C          0.50477000       0.16547000       0.64801160
    99  C          0.49523000       0.66547000       0.85198840
   100  C          0.00477000       0.33453000       0.35198840
   101  H          0.03440000       0.81440000       0.10550000
   102  H          0.46560000       0.18560000       0.60550000
   103  H          0.53440000       0.68560000       0.89450000
   104  H          0.96560000       0.31440000       0.39450000
   105  C          0.64469000       0.70003000       0.15594190
   106  C          0.85531000       0.29997000       0.65594190
   107  C          0.14469000       0.79997000       0.84405810
   108  C          0.35531000       0.20003000       0.34405810
   109  C          0.15977000       0.07853000       0.90404850
   110  C          0.34023000       0.92147000       0.40404850
   111  C          0.65977000       0.42147000       0.09595150
   112  C          0.84023000       0.57853000       0.59595150
   113  H          0.13180000       0.14530000       0.89230000
   114  H          0.36820000       0.85470000       0.39230000
   115  H          0.63180000       0.35470000       0.10770000
   116  H          0.86820000       0.64530000       0.60770000
   117  H          0.16770000       0.03950000       0.86500000
   118  H          0.33230000       0.96050000       0.36500000
   119  H          0.66770000       0.46050000       0.13500000
   120  H          0.83230000       0.53950000       0.63500000
   121  H          0.32860000       0.07220000       0.92780000
   122  H          0.17140000       0.92780000       0.42780000
   123  H          0.82860000       0.42780000       0.07220000
   124  H          0.67140000       0.57220000       0.57220000
   125  C          0.64991000       0.68623000       0.08417170
   126  C          0.85009000       0.31377000       0.58417170
   127  C          0.14991000       0.81377000       0.91582830
   128  C          0.35009000       0.18623000       0.41582830
   129  H          0.82610000       0.66160000       0.07120000
   130  H          0.67390000       0.33840000       0.57120000
   131  H          0.32610000       0.83840000       0.92880000
   132  H          0.17390000       0.16160000       0.42880000
   133  H          0.61700000       0.74730000       0.06280000
   134  H          0.88300000       0.25270000       0.56280000
   135  H          0.11700000       0.75270000       0.93720000
   136  H          0.38300000       0.24730000       0.43720000
   137  H          0.51020000       0.64060000       0.07180000
   138  H         -0.01020000       0.35940000       0.57180000
   139  H          0.01020000       0.85940000       0.92820000
   140  H          0.48980000       0.14060000       0.42820000
