data_NUQXAA03
_symmetry_space_group_name_H-M    'P1'
_symmetry_Int_Tables_number       1
loop_
_symmetry_equiv_pos_site_id
_symmetry_equiv_pos_as_xyz
1 x,y,z
_cell_length_a                   7.46813
_cell_length_b                   13.10485
_cell_length_c                   13.99955
_cell_angle_alpha                90.0
_cell_angle_beta                 90.0
_cell_angle_gamma                90.0
loop_
_atom_site_label
_atom_site_type_symbol
_atom_site_fract_x
_atom_site_fract_y
_atom_site_fract_z
     1  O          0.53574000       0.29482000       0.41105170
     2  O          0.96426000       0.70518000       0.91105170
     3  O          0.03574000       0.20518000       0.58894830
     4  O          0.46426000       0.79482000       0.08894830
     5  H          0.64770000       0.25840000       0.40230000
     6  H          0.85230000       0.74160000       0.90230000
     7  H          0.14770000       0.24160000       0.59770000
     8  H          0.35230000       0.75840000       0.09770000
     9  O          0.22604000       0.38032000       0.44200180
    10  O          0.27396000       0.61968000       0.94200180
    11  O          0.72604000       0.11968000       0.55799820
    12  O          0.77396000       0.88032000       0.05799820
    13  O          0.21875000       0.18723000       0.01322000
    14  O          0.28125000       0.81277000       0.51322000
    15  O          0.71875000       0.31277000       0.98678000
    16  O          0.78125000       0.68723000       0.48678000
    17  N          0.78624000       0.24022000       0.29057180
    18  N          0.71376000       0.75978000       0.79057180
    19  N          0.28624000       0.25978000       0.70942820
    20  N          0.21376000       0.74022000       0.20942820
    21  C          0.52684000       0.33342000       0.24362000
    22  C          0.97316000       0.66658000       0.74362000
    23  C          0.02684000       0.16658000       0.75638000
    24  C          0.47316000       0.83342000       0.25638000
    25  C          0.45145000       0.33502000       0.33402000
    26  C          0.04855000       0.66498000       0.83402000
    27  C          0.95145000       0.16498000       0.66598000
    28  C          0.54855000       0.83502000       0.16598000
    29  C          0.28655000       0.38282000       0.34982000
    30  C          0.21345000       0.61718000       0.84982000
    31  C          0.78655000       0.11718000       0.65018000
    32  C          0.71345000       0.88282000       0.15018000
    33  C          0.20045000       0.42963000       0.27403000
    34  C          0.29955000       0.57037000       0.77403000
    35  C          0.70045000       0.07037000       0.72597000
    36  C          0.79955000       0.92963000       0.22597000
    37  H          0.09120000       0.46210000       0.28360000
    38  H          0.40880000       0.53790000       0.78360000
    39  H          0.59120000       0.03790000       0.71640000
    40  H          0.90880000       0.96210000       0.21640000
    41  C          0.27736000       0.42783000       0.18322000
    42  C          0.22264000       0.57217000       0.68322000
    43  C          0.77736000       0.07217000       0.81678000
    44  C          0.72264000       0.92783000       0.31678000
    45  H          0.21760000       0.45910000       0.13280000
    46  H          0.28240000       0.54090000       0.63280000
    47  H          0.71760000       0.04090000       0.86720000
    48  H          0.78240000       0.95910000       0.36720000
    49  C          0.43465000       0.38243000       0.16672000
    50  C          0.06535000       0.61757000       0.66672000
    51  C          0.93465000       0.11757000       0.83328000
    52  C          0.56535000       0.88243000       0.33328000
    53  H          0.48380000       0.38260000       0.10560000
    54  H          0.01620000       0.61740000       0.60560000
    55  H         -0.01620000       0.11740000       0.89440000
    56  H          0.51620000       0.88260000       0.39440000
    57  C          0.69654000       0.28482000       0.22482000
    58  C          0.80346000       0.71518000       0.72482000
    59  C          0.19654000       0.21518000       0.77518000
    60  C          0.30346000       0.78482000       0.27518000
    61  H          0.74200000       0.28590000       0.16300000
    62  H          0.75800000       0.71410000       0.66300000
    63  H          0.24200000       0.21410000       0.83700000
    64  H          0.25800000       0.78590000       0.33700000
    65  C          0.95285000       0.19102000       0.27272000
    66  C          0.54715000       0.80898000       0.77272000
    67  C          0.45285000       0.30898000       0.72728000
    68  C          0.04715000       0.69102000       0.22728000
    69  C          0.03275000       0.14323000       0.35012000
    70  C          0.46725000       0.85677000       0.85012000
    71  C          0.53275000       0.35677000       0.64988000
    72  C          0.96725000       0.64323000       0.14988000
    73  H          0.97880000       0.14590000       0.41000000
    74  H          0.52120000       0.85410000       0.91000000
    75  H          0.47880000       0.35410000       0.59000000
    76  H          0.02120000       0.64590000       0.09000000
    77  C          0.19225000       0.09183000       0.33813000
    78  C          0.30775000       0.90817000       0.83813000
    79  C          0.69225000       0.40817000       0.66187000
    80  C          0.80775000       0.59183000       0.16187000
    81  H          0.24230000       0.05670000       0.38930000
    82  H          0.25770000       0.94330000       0.88930000
    83  H          0.74230000       0.44330000       0.61070000
    84  H          0.75770000       0.55670000       0.11070000
    85  C          0.27705000       0.09183000       0.25203000
    86  C          0.22295000       0.90817000       0.75203000
    87  C          0.77705000       0.40817000       0.74797000
    88  C          0.72295000       0.59183000       0.24797000
    89  H          0.38670000       0.05890000       0.24570000
    90  H          0.11330000       0.94110000       0.74570000
    91  H          0.88670000       0.44110000       0.75430000
    92  H          0.61330000       0.55890000       0.25430000
    93  C          0.20174000       0.14042000       0.17332000
    94  C          0.29826000       0.85958000       0.67332000
    95  C          0.70174000       0.35958000       0.82668000
    96  C          0.79826000       0.64042000       0.32668000
    97  C          0.03695000       0.18882000       0.18512000
    98  C          0.46305000       0.81118000       0.68512000
    99  C          0.53695000       0.31118000       0.81488000
   100  C          0.96305000       0.68882000       0.31488000
   101  H         -0.01730000       0.22010000       0.13290000
   102  H          0.51730000       0.77990000       0.63290000
   103  H          0.48270000       0.27990000       0.86710000
   104  H          0.01730000       0.72010000       0.36710000
   105  C          0.28985000       0.14313000       0.07892000
   106  C          0.21015000       0.85687000       0.57892000
   107  C          0.78985000       0.35687000       0.92108000
   108  C          0.71015000       0.64313000       0.42108000
   109  C          0.46656000       0.09544000       0.06344000
   110  C          0.03344000       0.90456000       0.56344000
   111  C          0.96656000       0.40456000       0.93656000
   112  C          0.53344000       0.59544000       0.43656000
   113  H          0.52020000       0.12340000       0.00680000
   114  H          0.97980000       0.87660000       0.50680000
   115  H          0.02020000       0.37660000      -0.00680000
   116  H          0.47980000       0.62340000       0.49320000
   117  H          0.45200000       0.02310000       0.05580000
   118  H          0.04800000       0.97690000       0.55580000
   119  H          0.95200000       0.47690000       0.94420000
   120  H          0.54800000       0.52310000       0.44420000
   121  H          0.54230000       0.10880000       0.11740000
   122  H          0.95770000       0.89120000       0.61740000
   123  H          0.04230000       0.39120000       0.88260000
   124  H          0.45770000       0.60880000       0.38260000
   125  C          0.05346000       0.42364000       0.45883000
   126  C          0.44654000       0.57636000       0.95883000
   127  C          0.55346000       0.07636000       0.54117000
   128  C          0.94654000       0.92364000       0.04117000
   129  H          0.06060000       0.49650000       0.45350000
   130  H          0.43940000       0.50350000       0.95350000
   131  H          0.56060000       0.00350000       0.54650000
   132  H          0.93940000      -0.00350000       0.04650000
   133  H          0.01360000       0.40560000       0.52180000
   134  H          0.48640000       0.59440000       0.02180000
   135  H          0.51360000       0.09440000       0.47820000
   136  H         -0.01360000       0.90560000       0.97820000
   137  H          0.97020000       0.39790000       0.41250000
   138  H          0.52980000       0.60210000       0.91250000
   139  H          0.47020000       0.10210000       0.58750000
   140  H          0.02980000       0.89790000       0.08750000
