data_OCHTET
_symmetry_space_group_name_H-M    'P1'
_symmetry_Int_Tables_number       1
loop_
_symmetry_equiv_pos_site_id
_symmetry_equiv_pos_as_xyz
1 x,y,z
_cell_length_a                   15.14
_cell_length_b                   23.89
_cell_length_c                   5.913
_cell_angle_alpha                90.0
_cell_angle_beta                 90.0
_cell_angle_gamma                90.0
loop_
_atom_site_label
_atom_site_type_symbol
_atom_site_fract_x
_atom_site_fract_y
_atom_site_fract_z
     1  C          0.09950000       0.95840000      -0.00000000
     2  C          0.09950000       0.45840000       0.50000000
     3  C          0.59950000       0.95840000       0.50000000
     4  C          0.59950000       0.45840000       0.00000000
     5  C          0.15050000       0.20840000       0.25000000
     6  C          0.15050000       0.70840000       0.75000000
     7  C          0.65050000       0.20840000       0.75000000
     8  C          0.65050000       0.70840000       0.25000000
     9  C          0.34950000       0.29160000       0.25000000
    10  C          0.34950000       0.79160000       0.75000000
    11  C          0.84950000       0.29160000       0.75000000
    12  C          0.84950000       0.79160000       0.25000000
    13  C          0.40050000       0.04160000       0.50000000
    14  C          0.40050000       0.54160000       0.00000000
    15  C          0.90050000       0.04160000       0.00000000
    16  C          0.90050000       0.54160000       0.50000000
    17  C          0.93400000       0.93820000      -0.01400000
    18  C          0.93400000       0.43820000       0.48600000
    19  C          0.43400000       0.93820000       0.48600000
    20  C          0.43400000       0.43820000      -0.01400000
    21  C          0.31600000       0.18820000       0.23600000
    22  C          0.31600000       0.68820000       0.73600000
    23  C          0.81600000       0.18820000       0.73600000
    24  C          0.81600000       0.68820000       0.23600000
    25  C          0.18400000       0.31180000       0.23600000
    26  C          0.18400000       0.81180000       0.73600000
    27  C          0.68400000       0.31180000       0.73600000
    28  C          0.68400000       0.81180000       0.23600000
    29  C          0.56600000       0.06180000       0.48600000
    30  C          0.56600000       0.56180000      -0.01400000
    31  C          0.06600000       0.06180000      -0.01400000
    32  C          0.06600000       0.56180000       0.48600000
    33  H          0.08800000       0.95700000       0.82200000
    34  H          0.08800000       0.45700000       0.32200000
    35  H          0.58800000       0.95700000       0.32200000
    36  H          0.58800000       0.45700000       0.82200000
    37  H          0.16200000       0.20700000       0.07200000
    38  H          0.16200000       0.70700000       0.57200000
    39  H          0.66200000       0.20700000       0.57200000
    40  H          0.66200000       0.70700000       0.07200000
    41  H          0.33800000       0.29300000       0.07200000
    42  H          0.33800000       0.79300000       0.57200000
    43  H          0.83800000       0.29300000       0.57200000
    44  H          0.83800000       0.79300000       0.07200000
    45  H          0.41200000       0.04300000       0.32200000
    46  H          0.41200000       0.54300000       0.82200000
    47  H          0.91200000       0.04300000       0.82200000
    48  H          0.91200000       0.54300000       0.32200000
    49  H          0.14200000       0.93800000       0.03800000
    50  H          0.14200000       0.43800000       0.53800000
    51  H          0.64200000       0.93800000       0.53800000
    52  H          0.64200000       0.43800000       0.03800000
    53  H          0.10800000       0.18800000       0.28800000
    54  H          0.10800000       0.68800000       0.78800000
    55  H          0.60800000       0.18800000       0.78800000
    56  H          0.60800000       0.68800000       0.28800000
    57  H          0.39200000       0.31200000       0.28800000
    58  H          0.39200000       0.81200000       0.78800000
    59  H          0.89200000       0.31200000       0.78800000
    60  H          0.89200000       0.81200000       0.28800000
    61  H          0.35800000       0.06200000       0.53800000
    62  H          0.35800000       0.56200000       0.03800000
    63  H          0.85800000       0.06200000       0.03800000
    64  H          0.85800000       0.56200000       0.53800000
    65  H          0.94000000       0.94100000       0.84600000
    66  H          0.94000000       0.44100000       0.34600000
    67  H          0.44000000       0.94100000       0.34600000
    68  H          0.44000000       0.44100000       0.84600000
    69  H          0.31000000       0.19100000       0.09600000
    70  H          0.31000000       0.69100000       0.59600000
    71  H          0.81000000       0.19100000       0.59600000
    72  H          0.81000000       0.69100000       0.09600000
    73  H          0.19000000       0.30900000       0.09600000
    74  H          0.19000000       0.80900000       0.59600000
    75  H          0.69000000       0.30900000       0.59600000
    76  H          0.69000000       0.80900000       0.09600000
    77  H          0.56000000       0.05900000       0.34600000
    78  H          0.56000000       0.55900000       0.84600000
    79  H          0.06000000       0.05900000       0.84600000
    80  H          0.06000000       0.55900000       0.34600000
    81  H          0.89800000       0.90100000       0.02700000
    82  H          0.89800000       0.40100000       0.52700000
    83  H          0.39800000       0.90100000       0.52700000
    84  H          0.39800000       0.40100000       0.02700000
    85  H          0.35200000       0.15100000       0.27700000
    86  H          0.35200000       0.65100000       0.77700000
    87  H          0.85200000       0.15100000       0.77700000
    88  H          0.85200000       0.65100000       0.27700000
    89  H          0.14800000       0.34900000       0.27700000
    90  H          0.14800000       0.84900000       0.77700000
    91  H          0.64800000       0.34900000       0.77700000
    92  H          0.64800000       0.84900000       0.27700000
    93  H          0.60200000       0.09900000       0.52700000
    94  H          0.60200000       0.59900000       0.02700000
    95  H          0.10200000       0.09900000       0.02700000
    96  H          0.10200000       0.59900000       0.52700000
    97  N          0.01810000       0.94010000       0.10350000
    98  N          0.01810000       0.44010000       0.60350000
    99  N          0.51810000       0.94010000       0.60350000
   100  N          0.51810000       0.44010000       0.10350000
   101  N          0.23190000       0.19010000       0.35350000
   102  N          0.23190000       0.69010000       0.85350000
   103  N          0.73190000       0.19010000       0.85350000
   104  N          0.73190000       0.69010000       0.35350000
   105  N          0.26810000       0.30990000       0.35350000
   106  N          0.26810000       0.80990000       0.85350000
   107  N          0.76810000       0.30990000       0.85350000
   108  N          0.76810000       0.80990000       0.35350000
   109  N          0.48190000       0.05990000       0.60350000
   110  N          0.48190000       0.55990000       0.10350000
   111  N          0.98190000       0.05990000       0.10350000
   112  N          0.98190000       0.55990000       0.60350000
   113  N          0.12300000       0.01530000       0.05900000
   114  N          0.12300000       0.51530000       0.55900000
   115  N          0.62300000       0.01530000       0.55900000
   116  N          0.62300000       0.51530000       0.05900000
   117  N          0.12700000       0.26530000       0.30900000
   118  N          0.12700000       0.76530000       0.80900000
   119  N          0.62700000       0.26530000       0.80900000
   120  N          0.62700000       0.76530000       0.30900000
   121  N          0.37300000       0.23470000       0.30900000
   122  N          0.37300000       0.73470000       0.80900000
   123  N          0.87300000       0.23470000       0.80900000
   124  N          0.87300000       0.73470000       0.30900000
   125  N          0.37700000       0.98470000       0.55900000
   126  N          0.37700000       0.48470000       0.05900000
   127  N          0.87700000       0.98470000       0.05900000
   128  N          0.87700000       0.48470000       0.55900000
   129  N          0.02100000       0.92740000       0.32640000
   130  N          0.02100000       0.42740000       0.82640000
   131  N          0.52100000       0.92740000       0.82640000
   132  N          0.52100000       0.42740000       0.32640000
   133  N          0.22900000       0.17740000       0.57640000
   134  N          0.22900000       0.67740000       0.07640000
   135  N          0.72900000       0.17740000       0.07640000
   136  N          0.72900000       0.67740000       0.57640000
   137  N          0.27100000       0.32260000       0.57640000
   138  N          0.27100000       0.82260000       0.07640000
   139  N          0.77100000       0.32260000       0.07640000
   140  N          0.77100000       0.82260000       0.57640000
   141  N          0.47900000       0.07260000       0.82640000
   142  N          0.47900000       0.57260000       0.32640000
   143  N          0.97900000       0.07260000       0.32640000
   144  N          0.97900000       0.57260000       0.82640000
   145  N          0.20600000       0.02660000       0.13740000
   146  N          0.20600000       0.52660000       0.63740000
   147  N          0.70600000       0.02660000       0.63740000
   148  N          0.70600000       0.52660000       0.13740000
   149  N          0.04400000       0.27660000       0.38740000
   150  N          0.04400000       0.77660000       0.88740000
   151  N          0.54400000       0.27660000       0.88740000
   152  N          0.54400000       0.77660000       0.38740000
   153  N          0.45600000       0.22340000       0.38740000
   154  N          0.45600000       0.72340000       0.88740000
   155  N          0.95600000       0.22340000       0.88740000
   156  N          0.95600000       0.72340000       0.38740000
   157  N          0.29400000       0.97340000       0.63740000
   158  N          0.29400000       0.47340000       0.13740000
   159  N          0.79400000       0.97340000       0.13740000
   160  N          0.79400000       0.47340000       0.63740000
   161  O          0.95070000       0.91230000       0.41380000
   162  O          0.95070000       0.41230000       0.91380000
   163  O          0.45070000       0.91230000       0.91380000
   164  O          0.45070000       0.41230000       0.41380000
   165  O          0.29930000       0.16230000       0.66380000
   166  O          0.29930000       0.66230000       0.16380000
   167  O          0.79930000       0.16230000       0.16380000
   168  O          0.79930000       0.66230000       0.66380000
   169  O          0.20070000       0.33770000       0.66380000
   170  O          0.20070000       0.83770000       0.16380000
   171  O          0.70070000       0.33770000       0.16380000
   172  O          0.70070000       0.83770000       0.66380000
   173  O          0.54930000       0.08770000       0.91380000
   174  O          0.54930000       0.58770000       0.41380000
   175  O          0.04930000       0.08770000       0.41380000
   176  O          0.04930000       0.58770000       0.91380000
   177  O          0.09030000       0.93300000       0.42720000
   178  O          0.09030000       0.43300000       0.92720000
   179  O          0.59030000       0.93300000       0.92720000
   180  O          0.59030000       0.43300000       0.42720000
   181  O          0.15970000       0.18300000       0.67720000
   182  O          0.15970000       0.68300000       0.17720000
   183  O          0.65970000       0.18300000       0.17720000
   184  O          0.65970000       0.68300000       0.67720000
   185  O          0.34030000       0.31700000       0.67720000
   186  O          0.34030000       0.81700000       0.17720000
   187  O          0.84030000       0.31700000       0.17720000
   188  O          0.84030000       0.81700000       0.67720000
   189  O          0.40970000       0.06700000       0.92720000
   190  O          0.40970000       0.56700000       0.42720000
   191  O          0.90970000       0.06700000       0.42720000
   192  O          0.90970000       0.56700000       0.92720000
   193  O          0.25630000       0.98670000       0.17120000
   194  O          0.25630000       0.48670000       0.67120000
   195  O          0.75630000       0.98670000       0.67120000
   196  O          0.75630000       0.48670000       0.17120000
   197  O         -0.00630000       0.23670000       0.42120000
   198  O         -0.00630000       0.73670000       0.92120000
   199  O          0.49370000       0.23670000       0.92120000
   200  O          0.49370000       0.73670000       0.42120000
   201  O          0.50630000       0.26330000       0.42120000
   202  O          0.50630000       0.76330000       0.92120000
   203  O          0.00630000       0.26330000       0.92120000
   204  O          0.00630000       0.76330000       0.42120000
   205  O          0.24370000       0.01330000       0.67120000
   206  O          0.24370000       0.51330000       0.17120000
   207  O          0.74370000       0.01330000       0.17120000
   208  O          0.74370000       0.51330000       0.67120000
   209  O          0.22450000       0.07570000       0.17170000
   210  O          0.22450000       0.57570000       0.67170000
   211  O          0.72450000       0.07570000       0.67170000
   212  O          0.72450000       0.57570000       0.17170000
   213  O          0.02550000       0.32570000       0.42170000
   214  O          0.02550000       0.82570000       0.92170000
   215  O          0.52550000       0.32570000       0.92170000
   216  O          0.52550000       0.82570000       0.42170000
   217  O          0.47450000       0.17430000       0.42170000
   218  O          0.47450000       0.67430000       0.92170000
   219  O          0.97450000       0.17430000       0.92170000
   220  O          0.97450000       0.67430000       0.42170000
   221  O          0.27550000       0.92430000       0.67170000
   222  O          0.27550000       0.42430000       0.17170000
   223  O          0.77550000       0.92430000       0.17170000
   224  O          0.77550000       0.42430000       0.67170000
