data_OCHTET03
_symmetry_space_group_name_H-M    'P1'
_symmetry_Int_Tables_number       1
loop_
_symmetry_equiv_pos_site_id
_symmetry_equiv_pos_as_xyz
1 x,y,z
_cell_length_a                   7.7112
_cell_length_b                   7.7112
_cell_length_c                   32.5536
_cell_angle_alpha                90.0
_cell_angle_beta                 90.0
_cell_angle_gamma                120.0
loop_
_atom_site_label
_atom_site_type_symbol
_atom_site_fract_x
_atom_site_fract_y
_atom_site_fract_z
     1  C          0.50890000       0.85980000      -0.00000000
     2  C          0.14020000       0.64910000       0.33333333
     3  C          0.35090000       0.49110000       0.66666667
     4  C          0.49110000       0.14020000       0.50000000
     5  C          0.85980000       0.35090000       0.83333333
     6  C          0.64910000       0.50890000       0.16666667
     7  C          0.28880000       0.00190000       0.02180000
     8  C         -0.00190000       0.28690000       0.35513333
     9  C          0.71310000       0.71120000       0.68846667
    10  C          0.71120000      -0.00190000       0.52180000
    11  C          0.00190000       0.71310000       0.85513333
    12  C          0.28690000       0.28880000       0.18846667
    13  C          0.25460000       0.52950000       0.03440000
    14  C          0.47050000       0.72510000       0.36773333
    15  C          0.27490000       0.74540000       0.70106667
    16  C          0.74540000       0.47050000       0.53440000
    17  C          0.52950000       0.27490000       0.86773333
    18  C          0.72510000       0.25460000       0.20106667
    19  C          0.04070000       0.67550000       0.05480000
    20  C          0.32450000       0.36520000       0.38813333
    21  C          0.63480000       0.95930000       0.72146667
    22  C          0.95930000       0.32450000       0.55480000
    23  C          0.67550000       0.63480000       0.88813333
    24  C          0.36520000       0.04070000       0.22146667
    25  H          0.65100000       0.91000000       0.99100000
    26  H          0.09000000       0.74100000       0.32433333
    27  H          0.25900000       0.34900000       0.65766667
    28  H          0.34900000       0.09000000       0.49100000
    29  H          0.91000000       0.25900000       0.82433333
    30  H          0.74100000       0.65100000       0.15766667
    31  H          0.43000000       0.82000000       0.97100000
    32  H          0.18000000       0.61000000       0.30433333
    33  H          0.39000000       0.57000000       0.63766667
    34  H          0.57000000       0.18000000       0.47100000
    35  H          0.82000000       0.39000000       0.80433333
    36  H          0.61000000       0.43000000       0.13766667
    37  H          0.31000000       0.13000000       0.03500000
    38  H          0.87000000       0.18000000       0.36833333
    39  H          0.82000000       0.69000000       0.70166667
    40  H          0.69000000       0.87000000       0.53500000
    41  H          0.13000000       0.82000000       0.86833333
    42  H          0.18000000       0.31000000       0.20166667
    43  H          0.19900000       0.92800000      -0.00200000
    44  H          0.07200000       0.27100000       0.33133333
    45  H          0.72900000       0.80100000       0.66466667
    46  H          0.80100000       0.07200000       0.49800000
    47  H          0.92800000       0.72900000       0.83133333
    48  H          0.27100000       0.19900000       0.16466667
    49  H          0.18000000       0.50000000       0.00400000
    50  H          0.50000000       0.68000000       0.33733333
    51  H          0.32000000       0.82000000       0.67066667
    52  H          0.82000000       0.50000000       0.50400000
    53  H          0.50000000       0.32000000       0.83733333
    54  H          0.68000000       0.18000000       0.17066667
    55  H          0.27000000       0.41100000       0.04100000
    56  H          0.58900000       0.85900000       0.37433333
    57  H          0.14100000       0.73000000       0.70766667
    58  H          0.73000000       0.58900000       0.54100000
    59  H          0.41100000       0.14100000       0.87433333
    60  H          0.85900000       0.27000000       0.20766667
    61  H         -0.01000000       0.65000000       0.02500000
    62  H          0.35000000       0.34000000       0.35833333
    63  H          0.66000000       0.01000000       0.69166667
    64  H          0.01000000       0.35000000       0.52500000
    65  H          0.65000000       0.66000000       0.85833333
    66  H          0.34000000      -0.01000000       0.19166667
    67  H         -0.02000000       0.68000000       0.08300000
    68  H          0.32000000       0.30000000       0.41633333
    69  H          0.70000000       0.02000000       0.74966667
    70  H          0.02000000       0.32000000       0.58300000
    71  H          0.68000000       0.70000000       0.91633333
    72  H          0.30000000      -0.02000000       0.24966667
    73  N          0.65380000       0.22270000       0.01220000
    74  N          0.77730000       0.43110000       0.34553333
    75  N          0.56890000       0.34620000       0.67886667
    76  N          0.34620000       0.77730000       0.51220000
    77  N          0.22270000       0.56890000       0.84553333
    78  N          0.43110000       0.65380000       0.17886667
    79  N          0.45590000       0.70750000       0.03210000
    80  N          0.29250000       0.74840000       0.36543333
    81  N          0.25160000       0.54410000       0.69876667
    82  N          0.54410000       0.29250000       0.53210000
    83  N          0.70750000       0.25160000       0.86543333
    84  N          0.74840000       0.45590000       0.19876667
    85  N          0.13090000       0.54810000       0.06540000
    86  N          0.45190000       0.58280000       0.39873333
    87  N          0.41720000       0.86910000       0.73206667
    88  N          0.86910000       0.45190000       0.56540000
    89  N          0.54810000       0.41720000       0.89873333
    90  N          0.58280000       0.13090000       0.23206667
    91  N          0.59230000       0.72630000       0.06070000
    92  N          0.27370000       0.86600000       0.39403333
    93  N          0.13400000       0.40770000       0.72736667
    94  N          0.40770000       0.27370000       0.56070000
    95  N          0.72630000       0.13400000       0.89403333
    96  N          0.86600000       0.59230000       0.22736667
    97  N          0.19750000       0.88780000       0.05850000
    98  N          0.11220000       0.30970000       0.39183333
    99  N          0.69030000       0.80250000       0.72516667
   100  N          0.80250000       0.11220000       0.55850000
   101  N          0.88780000       0.69030000       0.89183333
   102  N          0.30970000       0.19750000       0.22516667
   103  N          0.25340000       0.96180000       0.09670000
   104  N          0.03820000       0.29160000       0.43003333
   105  N          0.70840000       0.74660000       0.76336667
   106  N          0.74660000       0.03820000       0.59670000
   107  N          0.96180000       0.70840000       0.93003333
   108  N          0.29160000       0.25340000       0.26336667
   109  N          0.03660000       0.39950000       0.09380000
   110  N          0.60050000       0.63710000       0.42713333
   111  N          0.36290000       0.96340000       0.76046667
   112  N          0.96340000       0.60050000       0.59380000
   113  N          0.39950000       0.36290000       0.92713333
   114  N          0.63710000       0.03660000       0.26046667
   115  N          0.49050000       0.02900000       0.01370000
   116  N          0.97100000       0.46150000       0.34703333
   117  N          0.53850000       0.50950000       0.68036667
   118  N          0.50950000       0.97100000       0.51370000
   119  N          0.02900000       0.53850000       0.84703333
   120  N          0.46150000       0.49050000       0.18036667
   121  O          0.62040000       0.35640000       0.01900000
   122  O          0.64360000       0.26400000       0.35233333
   123  O          0.73600000       0.37960000       0.68566667
   124  O          0.37960000       0.64360000       0.51900000
   125  O          0.35640000       0.73600000       0.85233333
   126  O          0.26400000       0.62040000       0.18566667
   127  O          0.54370000       0.60380000       0.08790000
   128  O          0.39620000       0.93990000       0.42123333
   129  O          0.06010000       0.45630000       0.75456667
   130  O          0.45630000       0.39620000       0.58790000
   131  O          0.60380000       0.06010000       0.92123333
   132  O          0.93990000       0.54370000       0.25456667
   133  O          0.10460000       0.28530000       0.09980000
   134  O          0.71470000       0.81930000       0.43313333
   135  O          0.18070000       0.89540000       0.76646667
   136  O          0.89540000       0.71470000       0.59980000
   137  O          0.28530000       0.18070000       0.93313333
   138  O          0.81930000       0.10460000       0.26646667
   139  O          0.40230000       0.13210000       0.09850000
   140  O          0.86790000       0.27020000       0.43183333
   141  O          0.72980000       0.59770000       0.76516667
   142  O          0.59770000       0.86790000       0.59850000
   143  O          0.13210000       0.72980000       0.93183333
   144  O          0.27020000       0.40230000       0.26516667
   145  O          0.90760000       0.39550000       0.11570000
   146  O          0.60450000       0.51210000       0.44903333
   147  O          0.48790000       0.09240000       0.78236667
   148  O          0.09240000       0.60450000       0.61570000
   149  O          0.39550000       0.48790000       0.94903333
   150  O          0.51210000       0.90760000       0.28236667
   151  O          0.17080000       0.86700000       0.12640000
   152  O          0.13300000       0.30380000       0.45973333
   153  O          0.69620000       0.82920000       0.79306667
   154  O          0.82920000       0.13300000       0.62640000
   155  O          0.86700000       0.69620000       0.95973333
   156  O          0.30380000       0.17080000       0.29306667
   157  O          0.81540000       0.23760000       0.00400000
   158  O          0.76240000       0.57780000       0.33733333
   159  O          0.42220000       0.18460000       0.67066667
   160  O          0.18460000       0.76240000       0.50400000
   161  O          0.23760000       0.42220000       0.83733333
   162  O          0.57780000       0.81540000       0.17066667
   163  O          0.76250000       0.87530000       0.05560000
   164  O          0.12470000       0.88720000       0.38893333
   165  O          0.11280000       0.23750000       0.72226667
   166  O          0.23750000       0.12470000       0.55560000
   167  O          0.87530000       0.11280000       0.88893333
   168  O          0.88720000       0.76250000       0.22226667
