data_OCHTET04
_symmetry_space_group_name_H-M    'P1'
_symmetry_Int_Tables_number       1
loop_
_symmetry_equiv_pos_site_id
_symmetry_equiv_pos_as_xyz
1 x,y,z
_cell_length_a                   6.5331
_cell_length_b                   7.3512
_cell_length_c                   11.0323
_cell_angle_alpha                90.0
_cell_angle_beta                 90.0
_cell_angle_gamma                77.322
loop_
_atom_site_label
_atom_site_type_symbol
_atom_site_fract_x
_atom_site_fract_y
_atom_site_fract_z
     1  C          0.69077000       0.05526000       0.38524000
     2  C          0.80923000       0.44474000       0.88524000
     3  C          0.30923000       0.94474000       0.61476000
     4  C          0.19077000       0.55526000       0.11476000
     5  C          0.47657000       0.21606000       0.56583000
     6  C          0.02343000       0.28394000       0.06583000
     7  C          0.52343000       0.78394000       0.43417000
     8  C          0.97657000       0.71606000       0.93417000
     9  N          0.80126000       0.29256000       0.49853000
    10  N          0.69874000       0.20744000      -0.00147000
    11  N          0.19874000       0.70744000       0.50147000
    12  N          0.30126000       0.79256000       0.00147000
    13  N          0.64235000       0.20475000       0.47603000
    14  N          0.85765000       0.29525000       0.97603000
    15  N          0.35765000       0.79525000       0.52397000
    16  N          0.14235000       0.70475000       0.02397000
    17  N          0.51755000       0.96145000       0.37793000
    18  N          0.98245000       0.53855000       0.87793000
    19  N          0.48245000       0.03855000       0.62207000
    20  N          0.01755000       0.46145000       0.12207000
    21  N          0.35806000       0.03166000       0.29753000
    22  N          0.14194000       0.46834000       0.79753000
    23  N          0.64194000       0.96834000       0.70247000
    24  N          0.85806000       0.53166000       0.20247000
    25  O          0.76825000       0.42275000       0.57093000
    26  O          0.73175000       0.07725000       0.07093000
    27  O          0.23175000       0.57725000       0.42907000
    28  O          0.26825000       0.92275000       0.92907000
    29  O          0.96065000       0.24014000       0.44043000
    30  O          0.53935000       0.25986000       0.94043000
    31  O          0.03935000       0.75986000       0.55957000
    32  O          0.46065000       0.74014000       0.05957000
    33  O          0.35765000       0.18274000       0.25343000
    34  O          0.14235000       0.31726000       0.75343000
    35  O          0.64235000       0.81726000       0.74657000
    36  O          0.85765000       0.68274000       0.24657000
    37  O          0.22965000       0.93816000       0.28053000
    38  O          0.27035000       0.56184000       0.78053000
    39  O          0.77035000       0.06184000       0.71947000
    40  O          0.72965000       0.43816000       0.21947000
    41  H          0.69559400       0.11007900       0.31035300
    42  H          0.80440600       0.38992100       0.81035300
    43  H          0.30440600       0.88992100       0.68964700
    44  H          0.19559400       0.61007900       0.18964700
    45  H          0.78907100       0.96283900       0.42054400
    46  H          0.71092900       0.53716100       0.92054400
    47  H          0.21092900       0.03716100       0.57945600
    48  H          0.28907100       0.46283900       0.07945600
    49  H          0.48146400       0.32355500       0.62113500
    50  H          0.01853600       0.17644500       0.12113500
    51  H          0.51853600       0.67644500       0.37886500
    52  H          0.98146400       0.82355500       0.87886500
    53  H          0.35397600       0.26597000       0.52474800
    54  H          0.14602400       0.23403000       0.02474800
    55  H          0.64602400       0.73403000       0.47525200
    56  H          0.85397600       0.76597000       0.97525200
