data_ODEROH18
_symmetry_space_group_name_H-M    'P1'
_symmetry_Int_Tables_number       1
loop_
_symmetry_equiv_pos_site_id
_symmetry_equiv_pos_as_xyz
1 x,y,z
_cell_length_a                   4.88501
_cell_length_b                   22.37701
_cell_length_c                   20.42801
_cell_angle_alpha                90.0
_cell_angle_beta                 94.9522
_cell_angle_gamma                90.0
loop_
_atom_site_label
_atom_site_type_symbol
_atom_site_fract_x
_atom_site_fract_y
_atom_site_fract_z
     1  Cl         0.11260000       0.27121200       0.08271500
     2  Cl         0.88740000       0.77121200       0.91728500
     3  C          0.31770000       0.30121600       0.14691700
     4  C          0.68230000       0.80121600       0.85308300
     5  C          0.45660000       0.35581100       0.13891600
     6  C          0.54340000       0.85581100       0.86108400
     7  H          0.43395700       0.37598300       0.09905900
     8  H          0.56604300       0.87598300       0.90094100
     9  C          0.62350000       0.37901300       0.19081400
    10  C          0.37650000       0.87901300       0.80918600
    11  H          0.70484500       0.41615100       0.18625200
    12  H          0.29515500       0.91615100       0.81374800
    13  C          0.67150000       0.34851200       0.24831400
    14  C          0.32850000       0.84851200       0.75168600
    15  C          0.54380000       0.29221500       0.25591600
    16  C          0.45620000       0.79221500       0.74408400
    17  H          0.55458700       0.27336000       0.29669100
    18  H          0.44541300       0.77336000       0.70330900
    19  C          0.40260000       0.26581300       0.20221300
    20  C          0.59740000       0.76581300       0.79778700
    21  H          0.36305600       0.22510300       0.20235300
    22  H          0.63694400       0.72510300       0.79764700
    23  C          0.85240000       0.37148000       0.30361100
    24  C          0.14760000       0.87148000       0.69638900
    25  C          0.06350000       0.41141300       0.28511400
    26  C          0.93650000       0.91141300       0.71488600
    27  H          0.07613300       0.41842600       0.24063000
    28  H          0.92386700       0.91842600       0.75937000
    29  N          0.24250000       0.43901200       0.32821100
    30  N          0.75750000       0.93901200       0.67178900
    31  C          0.23550000       0.41821200       0.39381100
    32  C          0.76450000       0.91821200       0.60618900
    33  N          0.36790000       0.43620000       0.44801600
    34  N          0.63210000       0.93620000       0.55198400
    35  H          0.50123200       0.46047500       0.44719500
    36  H          0.49876800       0.96047500       0.55280500
    37  C          0.29170000       0.41531900       0.50521700
    38  C          0.70830000       0.91531900       0.49478300
    39  H          0.36598300       0.42351100       0.54761900
    40  H          0.63401700       0.92351100       0.45238100
    41  C          0.07860000       0.37961300       0.48501300
    42  C          0.92140000       0.87961300       0.51498700
    43  C          0.01650000       0.38541300       0.41721200
    44  C         -0.01650000       0.88541300       0.58278800
    45  C          0.85050000       0.35951100       0.36621100
    46  C          0.14950000       0.85951100       0.63378900
    47  H          0.72479500       0.33084900       0.37784500
    48  H          0.27520500       0.83084900       0.62215500
    49  C          0.92460000       0.34411300       0.52851500
    50  C          0.07540000       0.84411300       0.47148500
    51  O          0.71270000       0.31611600       0.51161700
    52  O          0.28730000       0.81611600       0.48838300
    53  C          0.04840000       0.34209000       0.60001200
    54  C          0.95160000       0.84209000       0.39998800
    55  C          0.18570000       0.29261300       0.62541500
    56  C          0.81430000       0.79261300       0.37458500
    57  F          0.22280000       0.24521300       0.58741800
    58  F          0.77720000       0.74521300       0.41258200
    59  C          0.31270000       0.29431300       0.68841500
    60  C          0.68730000       0.79431300       0.31158500
    61  H          0.42102900       0.26250900       0.70413000
    62  H          0.57897100       0.76250900       0.29587000
    63  C          0.27880000       0.34261400       0.72751600
    64  C          0.72120000       0.84261400       0.27248400
    65  H          0.36669300       0.34406900       0.76963900
    66  H          0.63330700       0.84406900       0.23036100
    67  C          0.11370000       0.38931200       0.70441400
    68  C          0.88630000       0.88931200       0.29558600
    69  C          0.00850000       0.38981100       0.64031300
    70  C         -0.00850000       0.88981100       0.35968700
    71  F          0.86010000       0.43731600       0.61620000
    72  F          0.13990000       0.93731600       0.38380000
    73  N          0.06870000       0.43661200       0.74641800
    74  N          0.93130000       0.93661200       0.25358200
    75  H          0.91732600       0.43918600       0.76510500
    76  H          0.08267400       0.93918600       0.23489500
    77  S          0.30050000       0.48561000       0.75881300
    78  S          0.69950000       0.98561000       0.24118700
    79  O          0.48200000       0.50030000       0.71040000
    80  O          0.51800000       0.00030000       0.28960000
    81  O          0.40200000       0.45130000       0.81630000
    82  O          0.59800000       0.95130000       0.18370000
    83  C          0.15680000       0.55191400       0.78730000
    84  C          0.84320000       0.05191400       0.21270000
    85  H          0.05959400       0.57181100       0.75006700
    86  H          0.94040600       0.07181100       0.24993300
    87  H          0.02037400       0.54086900       0.81712100
    88  H         -0.02037400       0.04086900       0.18287900
    89  C          0.35190000       0.59720000       0.82330000
    90  C          0.64810000       0.09720000       0.17670000
    91  H          0.44534700       0.57864600       0.86100000
    92  H          0.55465300       0.07864600       0.13900000
    93  H          0.48736400       0.60931700       0.79348600
    94  H          0.51263600       0.10931700       0.20651400
    95  C          0.19613000       0.65120000       0.84340000
    96  C          0.80387000       0.15120000       0.15660000
    97  H          0.26429300       0.68622200       0.82257200
    98  H          0.73570700       0.18622200       0.17742800
    99  H          0.22207500       0.65556600       0.88996800
   100  H          0.77792500       0.15556600       0.11003200
   101  H          0.00416800       0.64654100       0.82982400
   102  H         -0.00416800       0.14654100       0.17017600
   103  Cl        -0.02350000       0.68701100       0.67351300
   104  Cl         0.02350000       0.18701100       0.32648700
   105  C          0.73940000       0.66491300       0.61011400
   106  C          0.26060000       0.16491300       0.38988600
   107  C          0.63750000       0.60521000       0.61431400
   108  C          0.36250000       0.10521000       0.38568600
   109  H          0.70199000       0.58051700       0.64878200
   110  H          0.29801000       0.08051700       0.35121800
   111  C          0.45060000       0.58541200       0.56881400
   112  C          0.54940000       0.08541200       0.43118600
   113  H          0.38211000       0.54674800       0.57153100
   114  H          0.61789000       0.04674800       0.42846900
   115  C          0.35340000       0.62301100       0.51581100
   116  C          0.64660000       0.12301100       0.48418900
   117  C          0.46560000       0.67681100       0.51021400
   118  C          0.53440000       0.17681100       0.48978600
   119  H          0.41458700       0.70042200       0.47362600
   120  H          0.58541300       0.20042200       0.52637400
   121  C          0.66050000       0.69781100       0.55981100
   122  C          0.33950000       0.19781100       0.44018900
   123  H          0.73237500       0.73601800       0.55635000
   124  H          0.26762500       0.23601800       0.44365000
   125  C          0.15850000       0.59591100       0.46341300
   126  C          0.84150000       0.09591100       0.53658700
   127  C          0.95350000       0.55151000       0.47681500
   128  C          0.04650000       0.05151000       0.52318500
   129  H          0.93999500       0.53730100       0.51917400
   130  H          0.06000500       0.03730100       0.48082600
   131  N          0.78440000       0.53121400       0.42521300
   132  N          0.21560000       0.03121400       0.57478700
   133  C          0.79150000       0.54981200       0.36341300
   134  C          0.20850000       0.04981200       0.63658700
   135  N          0.64140000       0.53161300       0.31261300
   136  N          0.35860000       0.03161300       0.68738700
   137  H          0.51113100       0.50574100       0.31252700
   138  H          0.48886900       0.00574100       0.68747300
   139  C          0.72350000       0.56011300       0.25961300
   140  C          0.27650000       0.06011300       0.74038700
   141  H          0.65134300       0.55352900       0.21659800
   142  H          0.34865700       0.05352900       0.78340200
   143  C          0.93140000       0.60051400       0.27791300
   144  C          0.06860000       0.10051400       0.72208700
   145  C         -0.01450000       0.59361200       0.34741300
   146  C          0.01450000       0.09361200       0.65258700
   147  C          0.16060000       0.61591300       0.40141200
   148  C          0.83940000       0.11591300       0.59858800
   149  H          0.28349300       0.64613200       0.39319700
   150  H          0.71650700       0.14613200       0.60680300
   151  C          0.06160000       0.63901100       0.23031300
   152  C          0.93840000       0.13901100       0.76968700
   153  O          0.23990000       0.67621900       0.24981800
   154  O          0.76010000       0.17621900       0.75018200
   155  C          0.96050000       0.63701000       0.15881200
   156  C          0.03950000       0.13701000       0.84118800
   157  C          0.79550000       0.68301100       0.13111400
   158  C          0.20450000       0.18301100       0.86888600
   159  F          0.72630000       0.72861300       0.16791800
   160  F          0.27370000       0.22861300       0.83208200
   161  C          0.70340000       0.68221400       0.06481400
   162  C          0.29660000       0.18221400       0.93518600
   163  H          0.59553000       0.71326400       0.04690800
   164  H          0.40447000       0.21326400       0.95309200
   165  C          0.77450000       0.63521200       0.02521400
   166  C          0.22550000       0.13521200       0.97478600
   167  H          0.71235800       0.63429200       0.98092900
   168  H          0.28764200       0.13429200       0.01907100
   169  C          0.94440000       0.58861200       0.05271400
   170  C          0.05560000       0.08861200       0.94728600
   171  C          0.03060000       0.58911100       0.11911200
   172  C         -0.03060000       0.08911100       0.88088800
   173  F          0.19070000       0.54561400       0.14541900
   174  F          0.80930000       0.04561400       0.85458100
   175  N          0.01460000       0.54051100       0.00961600
   176  N         -0.01460000       0.04051100       0.99038400
   177  H          0.16211900       0.53993400       0.98987300
   178  H          0.83788100       0.03993400       0.01012700
   179  S          0.78850000       0.48881000       0.00211300
   180  S          0.21150000       0.98881000      -0.00211300
   181  C          0.88390000       0.43561700       0.94580000
   182  C          0.11610000       0.93561700       0.05420000
   183  H          0.88169800       0.45416900       0.90327400
   184  H          0.11830200       0.95416900       0.09672600
   185  H          0.07090800       0.42322700       0.95901300
   186  H          0.92909200       0.92322700       0.04098700
   187  O          0.51510000       0.51230000       0.98080000
   188  O          0.48490000       0.01230000       0.01920000
   189  O          0.83285000       0.46530000       0.06751800
   190  O          0.16715000       0.96530000       0.93248200
   191  C          0.70487000       0.38120000       0.93970000
   192  C          0.29513000       0.88120000       0.06030000
   193  H          0.71324100       0.35820600       0.98100800
   194  H          0.28675900       0.85820600       0.01899200
   195  H          0.51499200       0.39050900       0.92634400
   196  H          0.48500800       0.89050900       0.07365600
   197  C          0.84587000       0.35030000       0.88770000
   198  C          0.15413000       0.85030000       0.11230000
   199  H          0.74133300       0.35488700       0.84645500
   200  H          0.25866700       0.85488700       0.15354500
   201  H          0.86289500       0.30807100       0.89816400
   202  H          0.13710500       0.80807100       0.10183600
   203  H          0.02614100       0.36672300       0.88575800
   204  H         -0.02614100       0.86672300       0.11424200
