data_ODEROH14
_symmetry_space_group_name_H-M    'P1'
_symmetry_Int_Tables_number       1
loop_
_symmetry_equiv_pos_site_id
_symmetry_equiv_pos_as_xyz
1 x,y,z
_cell_length_a                   14.079001
_cell_length_b                   8.520001
_cell_length_c                   21.522001
_cell_angle_alpha                90.0
_cell_angle_beta                 109.93101
_cell_angle_gamma                90.0
loop_
_atom_site_label
_atom_site_type_symbol
_atom_site_fract_x
_atom_site_fract_y
_atom_site_fract_z
     1  Cl         0.87060000       0.94818000       0.93320000
     2  Cl         0.12940000       0.44818000       0.56680000
     3  Cl         0.12940000       0.05182000       0.06680000
     4  Cl         0.87060000       0.55182000       0.43320000
     5  C          0.91570000       0.93714000       0.86691700
     6  C          0.08430000       0.43714000       0.63308300
     7  C          0.08430000       0.06286000       0.13308300
     8  C          0.91570000       0.56286000       0.36691700
     9  C          0.01740000       0.97219000       0.87720000
    10  C          0.98260000       0.47219000       0.62280000
    11  C          0.98260000       0.02781000       0.12280000
    12  C          0.01740000       0.52781000       0.37720000
    13  H          0.06005800       0.00108200       0.91855100
    14  H          0.93994200       0.50108200       0.58144900
    15  H          0.93994200      -0.00108200       0.08144900
    16  H          0.06005800       0.49891800       0.41855100
    17  C          0.05340000       0.96219000       0.82420000
    18  C          0.94660000       0.46219000       0.67580000
    19  C          0.94660000       0.03781000       0.17580000
    20  C          0.05340000       0.53781000       0.32420000
    21  H          0.12073100      -0.01548800       0.83116100
    22  H          0.87926900       0.48451200       0.66883900
    23  H          0.87926900       0.01548800       0.16883900
    24  H          0.12073100       0.51548800       0.33116100
    25  C         -0.01130000       0.91815000       0.76221700
    26  C          0.01130000       0.41815000       0.73778300
    27  C          0.01130000       0.08185000       0.23778300
    28  C         -0.01130000       0.58185000       0.26221700
    29  C          0.88760000       0.88200000       0.75220000
    30  C          0.11240000       0.38200000       0.74780000
    31  C          0.11240000       0.11800000       0.24780000
    32  C          0.88760000       0.61800000       0.25220000
    33  H          0.84537200       0.85392000       0.71050400
    34  H          0.15462800       0.35392000       0.78949600
    35  H          0.15462800       0.14608000       0.28949600
    36  H          0.84537200       0.64608000       0.21050400
    37  C          0.85160000       0.89200000       0.80520000
    38  C          0.14840000       0.39200000       0.69480000
    39  C          0.14840000       0.10800000       0.19480000
    40  C          0.85160000       0.60800000       0.30520000
    41  H          0.78469700       0.87048800       0.79789300
    42  H          0.21530300       0.37048800       0.70210700
    43  H          0.21530300       0.12951200       0.20210700
    44  H          0.78469700       0.62951200       0.29789300
    45  C          0.02630000       0.91815000       0.70481700
    46  C          0.97370000       0.41815000       0.79518300
    47  C          0.97370000       0.08185000       0.29518300
    48  C          0.02630000       0.58185000       0.20481700
    49  C          0.95770000       0.95316000       0.64241900
    50  C          0.04230000       0.45316000       0.85758100
    51  C          0.04230000       0.04684000       0.35758100
    52  C          0.95770000       0.54684000       0.14241900
    53  H          0.88995400       0.96978200       0.63639100
    54  H          0.11004600       0.46978200       0.86360900
    55  H          0.11004600       0.03021800       0.36360900
    56  H          0.88995400       0.53021800       0.13639100
    57  N         -0.00930000       0.96416000       0.58881800
    58  N          0.00930000       0.46416000       0.91118200
    59  N          0.00930000       0.03584000       0.41118200
    60  N         -0.00930000       0.53584000       0.08881800
    61  C          0.09330000       0.94013000       0.59781800
    62  C          0.90670000       0.44013000       0.90218200
    63  C          0.90670000       0.05987000       0.40218200
    64  C          0.09330000       0.55987000       0.09781800
    65  C          0.16130000       0.90411000       0.66021800
    66  C          0.83870000       0.40411000       0.83978200
    67  C          0.83870000       0.09589000       0.33978200
    68  C          0.16130000       0.59589000       0.16021800
    69  C          0.12730000       0.89313000       0.71371600
    70  C          0.87270000       0.39313000       0.78628400
    71  C          0.87270000       0.10687000       0.28628400
    72  C          0.12730000       0.60687000       0.21371600
    73  H          0.17227500       0.86980700       0.75546600
    74  H          0.82772500       0.36980700       0.74453400
    75  H          0.82772500       0.13019300       0.24453400
    76  H          0.17227500       0.63019300       0.25546600
    77  C          0.25330000       0.88580000       0.64751800
    78  C          0.74670000       0.38580000       0.85248200
    79  C          0.74670000       0.11420000       0.35248200
    80  C          0.25330000       0.61420000       0.14751800
    81  C          0.23630000       0.90911000       0.58261900
    82  C          0.76370000       0.40911000       0.91738100
    83  C          0.76370000       0.09089000       0.41738100
    84  C          0.23630000       0.59089000       0.08261900
    85  H          0.28510600       0.90377600       0.56298000
    86  H          0.71489400       0.40377600       0.93702000
    87  H          0.71489400       0.09622400       0.43702000
    88  H          0.28510600       0.59622400       0.06298000
    89  N          0.13840000       0.94215000       0.55030000
    90  N          0.86160000       0.44215000       0.94970000
    91  N          0.86160000       0.05785000       0.44970000
    92  N          0.13840000       0.55785000       0.05030000
    93  H          0.10998100       0.96104100       0.50830100
    94  H          0.89001900       0.46104100       0.99169900
    95  H          0.89001900       0.03895900       0.49169900
    96  H          0.10998100       0.53895900       0.00830100
    97  C          0.34730000       0.84280000       0.69820000
    98  C          0.65270000       0.34280000       0.80180000
    99  C          0.65270000       0.15720000       0.30180000
   100  C          0.34730000       0.65720000       0.19820000
   101  O          0.35640000       0.80814000       0.75530000
   102  O          0.64360000       0.30814000       0.74470000
   103  O          0.64360000       0.19186000       0.24470000
   104  O          0.35640000       0.69186000       0.25530000
   105  C          0.43920000       0.83680000       0.67631400
   106  C          0.56080000       0.33680000       0.82368600
   107  C          0.56080000       0.16320000       0.32368600
   108  C          0.43920000       0.66320000       0.17631400
   109  C          0.48520000       0.97590000       0.66801400
   110  C          0.51480000       0.47590000       0.83198600
   111  C          0.51480000       0.02410000       0.33198600
   112  C          0.48520000       0.52410000       0.16801400
   113  C          0.57520000       0.96910000       0.65491500
   114  C          0.42480000       0.46910000       0.84508500
   115  C          0.42480000       0.03090000       0.34508500
   116  C          0.57520000       0.53090000       0.15491500
   117  C          0.61920000       0.82611000       0.65011700
   118  C          0.38080000       0.32611000       0.84988300
   119  C          0.38080000       0.17389000       0.34988300
   120  C          0.61920000       0.67389000       0.15011700
   121  H          0.67905400       0.82213200       0.64138200
   122  H          0.32094600       0.32213200       0.85861800
   123  H          0.32094600       0.17786800       0.35861800
   124  H          0.67905400       0.67786800       0.14138200
   125  C          0.57230000       0.68710000       0.65851800
   126  C          0.42770000       0.18710000       0.84148200
   127  C          0.42770000       0.31290000       0.34148200
   128  C          0.57230000       0.81290000       0.15851800
   129  H          0.60168100       0.59080800       0.65527200
   130  H          0.39831900       0.09080800       0.84472800
   131  H          0.39831900       0.40919200       0.34472800
   132  H          0.60168100       0.90919200       0.15527200
   133  C          0.48230000       0.69290000       0.67161600
   134  C          0.51770000       0.19290000       0.82838400
   135  C          0.51770000       0.30710000       0.32838400
   136  C          0.48230000       0.80710000       0.17161600
   137  F          0.44040000       0.11380000       0.67030000
   138  F          0.55960000       0.61380000       0.82970000
   139  F          0.55960000       0.88620000       0.32970000
   140  F          0.44040000       0.38620000       0.17030000
   141  F          0.43550000       0.55980000       0.67730000
   142  F          0.56450000       0.05980000       0.82270000
   143  F          0.56450000       0.44020000       0.32270000
   144  F          0.43550000       0.94020000       0.17730000
   145  N          0.62340000       0.11211000       0.64620000
   146  N          0.37660000       0.61211000       0.85380000
   147  N          0.37660000       0.88789000       0.35380000
   148  N          0.62340000       0.38789000       0.14620000
   149  H          0.64849200       0.16726400       0.68152100
   150  H          0.35150800       0.66726400       0.81847900
   151  H          0.35150800       0.83273600       0.31847900
   152  H          0.64849200       0.33273600       0.18152100
   153  O          0.65150000       0.06411000       0.53930000
   154  O          0.34850000       0.56411000       0.96070000
   155  O          0.34850000       0.93589000       0.46070000
   156  O          0.65150000       0.43589000       0.03930000
   157  O          0.71360000       0.31211000       0.60130000
   158  O          0.28640000       0.81211000       0.89870000
   159  O          0.28640000       0.68789000       0.39870000
   160  O          0.71360000       0.18789000       0.10130000
   161  S          0.63930000       0.18990000       0.58021600
   162  S          0.36070000       0.68990000       0.91978400
   163  S          0.36070000       0.81010000       0.41978400
   164  S          0.63930000       0.31010000       0.08021600
   165  C          0.51740000       0.27116000       0.54630000
   166  C          0.48260000       0.77116000       0.95370000
   167  C          0.48260000       0.72884000       0.45370000
   168  C          0.51740000       0.22884000       0.04630000
   169  H          0.53068800       0.32063800       0.50939200
   170  H          0.46931200       0.82063800       0.99060800
   171  H          0.46931200       0.67936200       0.49060800
   172  H          0.53068800       0.17936200       0.00939200
   173  H          0.48539000       0.17237300       0.52693300
   174  H          0.51461000       0.67237300       0.97306700
   175  H          0.51461000       0.82762700       0.47306700
   176  H          0.48539000       0.32762700       0.02693300
   177  C          0.42160000       0.35200000       0.53350000
   178  C          0.57840000       0.85200000       0.96650000
   179  C          0.57840000       0.64800000       0.46650000
   180  C          0.42160000       0.14800000       0.03350000
   181  H          0.44200500       0.45938300       0.53106600
   182  H          0.55799500       0.95938300       0.96893400
   183  H          0.55799500       0.54061700       0.46893400
   184  H          0.44200500       0.04061700       0.03106600
   185  H          0.41401100       0.34362100       0.57652500
   186  H          0.58598900       0.84362100       0.92347500
   187  H          0.58598900       0.65637900       0.42347500
   188  H          0.41401100       0.15637900       0.07652500
   189  C          0.31670000       0.36400000       0.49150000
   190  C          0.68330000       0.86400000       0.00850000
   191  C          0.68330000       0.63600000       0.50850000
   192  C          0.31670000       0.13600000       0.99150000
   193  H          0.28239700       0.44199700       0.50571500
   194  H          0.71760300       0.94199700      -0.00571500
   195  H          0.71760300       0.55800300       0.49428500
   196  H          0.28239700       0.05800300       0.00571500
   197  H          0.31189400       0.37946100       0.44623400
   198  H          0.68810600       0.87946100       0.05376600
   199  H          0.68810600       0.62053900       0.55376600
   200  H          0.31189400       0.12053900       0.94623400
   201  H          0.28325500       0.26103400       0.49274000
   202  H          0.71674500       0.76103400       0.00726000
   203  H          0.71674500       0.73896600       0.50726000
   204  H          0.28325500       0.23896600       0.99274000
