data_ODEROH06
_symmetry_space_group_name_H-M    'P1'
_symmetry_Int_Tables_number       1
loop_
_symmetry_equiv_pos_site_id
_symmetry_equiv_pos_as_xyz
1 x,y,z
_cell_length_a                   7.586901
_cell_length_b                   10.255101
_cell_length_c                   14.89242
_cell_angle_alpha                98.50101
_cell_angle_beta                 100.53501
_cell_angle_gamma                105.59801
loop_
_atom_site_label
_atom_site_type_symbol
_atom_site_fract_x
_atom_site_fract_y
_atom_site_fract_z
     1  S          0.19086500       0.80714300       0.29644200
     2  S          0.80913500       0.19285700       0.70355800
     3  Cl         0.00944600       0.08910400       0.16379300
     4  Cl        -0.00944600       0.91089600       0.83620700
     5  F          0.07621110       0.64844800       0.52369600
     6  F          0.92378890       0.35155200       0.47630400
     7  F          0.68970120       0.65538100       0.65870600
     8  F          0.31029880       0.34461900       0.34129400
     9  O          0.22033150       0.48522100       0.66923700
    10  O          0.77966850       0.51477900       0.33076300
    11  O          0.38651150       0.85894110       0.29631800
    12  O          0.61348850       0.14105890       0.70368200
    13  O          0.05431160       0.74947110       0.20975700
    14  O          0.94568840       0.25052890       0.79024300
    15  N          0.16729170       0.68405120       0.35591800
    16  N          0.83270830       0.31594880       0.64408200
    17  H          0.05931800       0.66719900       0.36975200
    18  H          0.94068200       0.33280100       0.63024800
    19  N          0.47648180       0.90444120       0.87287800
    20  N          0.52351820       0.09555880       0.12712200
    21  H          0.52135600      -0.00846400       0.89700400
    22  H          0.47864400       0.00846400       0.10299600
    23  N          0.41839180       0.82268130       0.01134900
    24  N          0.58160820       0.17731870       0.98865100
    25  C          0.31790190       0.60643140       0.67992100
    26  C          0.68209810       0.39356860       0.32007900
    27  C          0.25581190       0.66177130       0.51787100
    28  C          0.74418810       0.33822870       0.48212900
    29  C          0.45362000       0.84629150       0.78250100
    30  C          0.54638000       0.15370850       0.21749900
    31  H          0.48491500       0.89477500       0.73669500
    32  H          0.51508500       0.10522500       0.26330500
    33  C          0.35347190       0.67303140       0.85758100
    34  C          0.64652810       0.32696860       0.14241900
    35  C          0.56392000       0.66703150       0.58581100
    36  C          0.43608000       0.33296850       0.41418900
    37  C          0.38112000       0.65177140       0.59522100
    38  C          0.61888000       0.34822860       0.40477900
    39  C          0.48902000       0.69185140       0.42831100
    40  C          0.51098000       0.30814860       0.57168900
    41  H          0.52410900       0.70199100       0.37247000
    42  H          0.47589100       0.29800900       0.62753000
    43  C          0.30492000       0.68268140       0.43444100
    44  C          0.69508000       0.31731860       0.56555900
    45  C          0.37632000       0.70300140       0.76761100
    46  C          0.62368000       0.29699860       0.23238900
    47  C          0.22382000       0.45221150       0.03120100
    48  C          0.77618000       0.54778850       0.96879900
    49  C          0.28934190       0.55487140       0.89267100
    50  C          0.71065810       0.44512860       0.10732900
    51  H          0.24650000       0.46736000       0.85397000
    52  H          0.75350000       0.53264000       0.14603000
    53  C          0.62032000       0.68601150       0.50452110
    54  C          0.37968000       0.31398850       0.49547890
    55  H          0.74383900       0.69471200       0.50087000
    56  H          0.25616100       0.30528800       0.49913000
    57  C          0.12832000       0.94448140       0.35619100
    58  C          0.87168000       0.05551860       0.64380900
    59  H          0.19505800       0.96736400       0.42129200
    60  H          0.80494200       0.03263600       0.57870800
    61  H          0.16801500       0.02554500       0.32985100
    62  H          0.83198500       0.97445500       0.67014900
    63  C          0.16442000       0.47036160       0.11453100
    64  C          0.83558000       0.52963840       0.88546900
    65  H          0.16760400       0.55849300       0.14259300
    66  H          0.83239600       0.44150700       0.85740700
    67  C          0.41612000       0.80140150       0.92032100
    68  C          0.58388000       0.19859850       0.07967900
    69  C          0.10102000       0.36023160       0.15610100
    70  C          0.89898000       0.63976840       0.84389900
    71  H          0.06332200       0.37405500       0.21184500
    72  H          0.93667800       0.62594500       0.78815500
    73  C          0.35642000       0.70715150       0.04252100
    74  C          0.64358000       0.29284850       0.95747900
    75  H          0.35615400       0.71679800       0.10558100
    76  H          0.64384600       0.28320200       0.89441900
    77  C          0.91738000       0.90945160       0.35050110
    78  C          0.08262000       0.09054840       0.64949890
    79  H          0.84880100       0.87316700       0.28593300
    80  H          0.15119900       0.12683300       0.71406700
    81  H          0.88048900       0.83842000       0.38570400
    82  H          0.11951100       0.16158000       0.61429600
    83  C          0.29132000       0.57174150       0.98766100
    84  C          0.70868000       0.42825850       0.01233900
    85  C          0.21582000       0.31852150      -0.00968900
    86  C          0.78418000       0.68147850       0.00968900
    87  H          0.25412500       0.30393800       0.93480700
    88  H          0.74587500       0.69606200       0.06519300
    89  C          0.09462000       0.22953160       0.11348100
    90  C          0.90538000       0.77046840       0.88651900
    91  C          0.15162000       0.20702150       0.03102110
    92  C          0.84838000       0.79297850       0.96897890
    93  H          0.14702400       0.11839300       0.00324000
    94  H          0.85297600       0.88160700      -0.00324000
    95  C          0.86668000       0.03696170       0.38925110
    96  C          0.13332000       0.96303830       0.61074890
    97  H          0.89249700       0.10401800       0.35092100
    98  H          0.10750300       0.89598200       0.64907900
    99  H          0.94015900       0.07617600       0.45190500
   100  H          0.05984100       0.92382400       0.54809500
   101  H          0.73532900       0.01104800       0.38934000
   102  H          0.26467100      -0.01104800       0.61066000
