data_ODEROH
_symmetry_space_group_name_H-M    'P1'
_symmetry_Int_Tables_number       1
loop_
_symmetry_equiv_pos_site_id
_symmetry_equiv_pos_as_xyz
1 x,y,z
_cell_length_a                   19.02051
_cell_length_b                   5.69672
_cell_length_c                   20.08881
_cell_angle_alpha                90.0
_cell_angle_beta                 95.7224
_cell_angle_gamma                90.0
loop_
_atom_site_label
_atom_site_type_symbol
_atom_site_fract_x
_atom_site_fract_y
_atom_site_fract_z
     1  C          0.76338180       0.67664000       0.16732000
     2  C          0.73661820       0.17664000       0.33268000
     3  C          0.23661820       0.32336000       0.83268000
     4  C          0.26338180       0.82336000       0.66732000
     5  H          0.74260000       0.52250000       0.15630000
     6  H          0.75740000       0.02250000       0.34370000
     7  H          0.25740000       0.47750000       0.84370000
     8  H          0.24260000      -0.02250000       0.65630000
     9  H          0.75500000       0.71880000       0.21320000
    10  H          0.74500000       0.21880000       0.28680000
    11  H          0.24500000       0.28120000       0.78680000
    12  H          0.25500000       0.78120000       0.71320000
    13  H          0.81430000       0.67120000       0.16360000
    14  H          0.68570000       0.17120000       0.33640000
    15  H          0.18570000       0.32880000       0.83640000
    16  H          0.31430000       0.82880000       0.66360000
    17  C          0.72943150       0.85964000       0.11903160
    18  C          0.77056850       0.35964000       0.38096840
    19  C          0.27056850       0.14036000       0.88096840
    20  C          0.22943150       0.64036000       0.61903160
    21  H          0.73790000       0.81740000       0.07270000
    22  H          0.76210000       0.31740000       0.42730000
    23  H          0.26210000       0.18260000       0.92730000
    24  H          0.23790000       0.68260000       0.57270000
    25  H          0.75130000       0.01480000       0.12940000
    26  H          0.74870000       0.51480000       0.37060000
    27  H          0.24870000      -0.01480000       0.87060000
    28  H          0.25130000       0.48520000       0.62940000
    29  C          0.64990140       0.87475000       0.12428130
    30  C          0.85009860       0.37475000       0.37571870
    31  C          0.35009860       0.12525000       0.87571870
    32  C          0.14990140       0.62525000       0.62428130
    33  H          0.64170000       0.91730000       0.17070000
    34  H          0.85830000       0.41730000       0.32930000
    35  H          0.35830000       0.08270000       0.82930000
    36  H          0.14170000       0.58270000       0.67070000
    37  H          0.62830000       0.71900000       0.11440000
    38  H          0.87170000       0.21900000       0.38560000
    39  H          0.37170000       0.28100000       0.88560000
    40  H          0.12830000       0.78100000       0.61440000
    41  S          0.60832300       0.08495110       0.06843300
    42  S          0.89167700       0.58495110       0.43156700
    43  S          0.39167700       0.91504890       0.93156700
    44  S          0.10832300       0.41504890       0.56843300
    45  O          0.59807900      -0.02203000       0.00281900
    46  O          0.90192100       0.47797000       0.49718100
    47  O          0.40192100       0.02203000      -0.00281900
    48  O          0.09807900       0.52203000       0.50281900
    49  O          0.64570900       0.30363000       0.07622100
    50  O          0.85429100       0.80363000       0.42377900
    51  O          0.35429100       0.69637000       0.92377900
    52  O          0.14570900       0.19637000       0.57622100
    53  N          0.52874110       0.12294000       0.09147100
    54  N          0.97125890       0.62294000       0.40852900
    55  N          0.47125890       0.87706000       0.90852900
    56  N          0.02874110       0.37706000       0.59147100
    57  H          0.49771600       0.07060000       0.06221600
    58  H          0.00228400       0.57060000       0.43778400
    59  H          0.50228400       0.92940000       0.93778400
    60  H         -0.00228400       0.42940000       0.56221600
    61  C          0.50970120       0.32494000       0.12748120
    62  C          0.99029880       0.82494000       0.37251880
    63  C          0.49029880       0.67506000       0.87251880
    64  C          0.00970120       0.17506000       0.62748120
    65  C          0.53721120       0.36334000       0.19327120
    66  C          0.96278880       0.86334000       0.30672880
    67  C          0.46278880       0.63666000       0.80672880
    68  C          0.03721120       0.13666000       0.69327120
    69  C          0.51688130       0.54804000       0.23188110
    70  C          0.98311870       0.04804000       0.26811890
    71  C          0.48311870       0.45196000       0.76811890
    72  C          0.01688130       0.95196000       0.73188110
    73  C          0.46481130       0.69324000       0.20165130
    74  C          0.03518870       0.19324000       0.29834870
    75  C          0.53518870       0.30676000       0.79834870
    76  C          0.96481130       0.80676000       0.70165130
    77  C          0.43522140       0.66555000       0.13643130
    78  C          0.06477860       0.16555000       0.36356870
    79  C          0.56477860       0.33445000       0.86356870
    80  C          0.93522140       0.83445000       0.63643130
    81  H          0.39980000       0.76990000       0.11740000
    82  H          0.10020000       0.26990000       0.38260000
    83  H          0.60020000       0.23010000       0.88260000
    84  H          0.89980000       0.73010000       0.61740000
    85  C          0.45879130       0.48094000       0.09964120
    86  C          0.04120870      -0.01906000       0.40035880
    87  C          0.54120870       0.51906000       0.90035880
    88  C          0.95879130       0.01906000       0.59964120
    89  H          0.43980000       0.46050000       0.05450000
    90  H          0.06020000       0.96050000       0.44550000
    91  H          0.56020000       0.53950000       0.94550000
    92  H          0.93980000       0.03950000       0.55450000
    93  F          0.58786800       0.21703000       0.22095700
    94  F          0.91213200       0.71703000       0.27904300
    95  F          0.41213200       0.78297000       0.77904300
    96  F          0.08786800       0.28297000       0.72095700
    97  F          0.44183900       0.87163000       0.23891800
    98  F          0.05816100       0.37163000       0.26108200
    99  F          0.55816100       0.12837000       0.76108200
   100  F          0.94183900       0.62837000       0.73891800
   101  C          0.55390130       0.60044000       0.30059120
   102  C          0.94609870       0.10044000       0.19940880
   103  C          0.44609870       0.39956000       0.69940880
   104  C          0.05390130       0.89956000       0.80059120
   105  O          0.59122110       0.77693000       0.30710100
   106  O          0.90877890       0.27693000       0.19289900
   107  O          0.40877890       0.22307000       0.69289900
   108  O          0.09122110       0.72307000       0.80710100
   109  C          0.54354120       0.44594000       0.35540120
   110  C          0.95645880       0.94594000       0.14459880
   111  C          0.45645880       0.55406000       0.64459880
   112  C          0.04354120       0.05406000       0.85540120
   113  C          0.50321120       0.24294000       0.35508120
   114  C         -0.00321120       0.74294000       0.14491880
   115  C          0.49678880       0.75706000       0.64491880
   116  C          0.00321120       0.25706000       0.85508120
   117  H          0.47630000       0.18010000       0.31680000
   118  H          0.02370000       0.68010000       0.18320000
   119  H          0.52370000       0.81990000       0.68320000
   120  H          0.97630000       0.31990000       0.81680000
   121  N          0.50753110       0.14654000       0.41721100
   122  N         -0.00753110       0.64654000       0.08278900
   123  N          0.49246890       0.85346000       0.58278900
   124  N          0.00753110       0.35346000       0.91721100
   125  H          0.48361400       0.01750000       0.42861400
   126  H          0.01638600       0.51750000       0.07138600
   127  H          0.51638600      -0.01750000       0.57138600
   128  H          0.98361400       0.48250000       0.92861400
   129  C          0.55122120       0.28444000       0.45990120
   130  C          0.94877880       0.78444000       0.04009880
   131  C          0.44877880       0.71556000       0.54009880
   132  C          0.05122120       0.21556000       0.95990120
   133  N          0.56777100       0.24404000       0.52553100
   134  N          0.93222900       0.74404000       0.97446900
   135  N          0.43222900       0.75596000       0.47446900
   136  N          0.06777100       0.25596000       0.02553100
   137  C          0.61223130       0.40214000       0.55645120
   138  C          0.88776870       0.90214000       0.94354880
   139  C          0.38776870       0.59786000       0.44354880
   140  C          0.11223130       0.09786000       0.05645120
   141  H          0.62660000       0.37810000       0.60260000
   142  H          0.87340000       0.87810000       0.89740000
   143  H          0.37340000       0.62190000       0.39740000
   144  H          0.12660000       0.12190000       0.10260000
   145  C          0.63919120       0.60054000       0.52577110
   146  C          0.86080880       0.10054000       0.97422890
   147  C          0.36080880       0.39946000       0.47422890
   148  C          0.13919120       0.89946000       0.02577110
   149  C          0.61947120       0.63694000       0.45773120
   150  C          0.88052880       0.13694000       0.04226880
   151  C          0.38052880       0.36306000       0.54226880
   152  C          0.11947120       0.86306000       0.95773120
   153  H          0.63590000       0.77000000       0.43540000
   154  H          0.86410000       0.27000000       0.06460000
   155  H          0.36410000       0.23000000       0.56460000
   156  H          0.13590000       0.73000000       0.93540000
   157  C          0.57518120       0.47384000       0.42353110
   158  C          0.92481880       0.97384000       0.07646890
   159  C          0.42481880       0.52616000       0.57646890
   160  C          0.07518120       0.02616000       0.92353110
   161  C          0.68696120       0.76934000       0.56380120
   162  C          0.81303880       0.26934000       0.93619880
   163  C          0.31303880       0.23066000       0.43619880
   164  C          0.18696120       0.73066000       0.06380120
   165  C          0.68499140       0.80835000       0.63249120
   166  C          0.81500860       0.30835000       0.86750880
   167  C          0.31500860       0.19165000       0.36750880
   168  C          0.18499140       0.69165000       0.13249120
   169  H          0.65380000       0.71820000       0.65640000
   170  H          0.84620000       0.21820000       0.84360000
   171  H          0.34620000       0.28180000       0.34360000
   172  H          0.15380000       0.78180000       0.15640000
   173  C          0.72801140      -0.02265000       0.66635130
   174  C          0.77198860       0.47735000       0.83364870
   175  C          0.27198860       0.02265000       0.33364870
   176  C          0.22801140       0.52265000       0.16635130
   177  H          0.72650000       0.00080000       0.71300000
   178  H          0.77350000       0.50080000       0.78700000
   179  H          0.27350000      -0.00080000       0.28700000
   180  H          0.22650000       0.49920000       0.21300000
   181  C          0.77291130       0.11045000       0.63151130
   182  C          0.72708870       0.61045000       0.86848870
   183  C          0.22708870       0.88955000       0.36848870
   184  C          0.27291130       0.38955000       0.13151130
   185  C          0.77679130       0.07475000       0.56403130
   186  C          0.72320870       0.57475000       0.93596870
   187  C          0.22320870       0.92525000       0.43596870
   188  C          0.27679130       0.42525000       0.06403130
   189  H          0.80820000       0.16540000       0.54050000
   190  H          0.69180000       0.66540000       0.95950000
   191  H          0.19180000       0.83460000       0.45950000
   192  H          0.30820000       0.33460000       0.04050000
   193  C          0.73417120       0.90455000       0.53076120
   194  C          0.76582880       0.40455000       0.96923880
   195  C          0.26582880       0.09545000       0.46923880
   196  C          0.23417120       0.59545000       0.03076120
   197  H          0.73720000       0.87930000       0.48440000
   198  H          0.76280000       0.37930000       0.01560000
   199  H          0.26280000       0.12070000       0.51560000
   200  H          0.23720000       0.62070000       0.98440000
   201  Cl         0.82673400       0.32110130       0.67319400
   202  Cl         0.67326600       0.82110130       0.82680600
   203  Cl         0.17326600       0.67889870       0.32680600
   204  Cl         0.32673400       0.17889870       0.17319400
