data_OGEPUM02
_symmetry_space_group_name_H-M    'P1'
_symmetry_Int_Tables_number       1
loop_
_symmetry_equiv_pos_site_id
_symmetry_equiv_pos_as_xyz
1 x,y,z
_cell_length_a                   10.20241
_cell_length_b                   13.354512
_cell_length_c                   12.696213
_cell_angle_alpha                90.0
_cell_angle_beta                 128.3646
_cell_angle_gamma                90.0
loop_
_atom_site_label
_atom_site_type_symbol
_atom_site_fract_x
_atom_site_fract_y
_atom_site_fract_z
     1  O          0.11233000       0.97822130       0.19822000
     2  O          0.88767000       0.47822130       0.30178000
     3  O          0.88767000       0.02177870       0.80178000
     4  O          0.11233000       0.52177870       0.69822000
     5  O          0.75617000       0.67905150       0.43722000
     6  O          0.24383000       0.17905150       0.06278000
     7  O          0.24383000       0.32094850       0.56278000
     8  O          0.75617000       0.82094850       0.93722000
     9  O          0.72167000       0.83503170       0.45552000
    10  O          0.27833000       0.33503170       0.04448000
    11  O          0.27833000       0.16496830       0.54448000
    12  O          0.72167000       0.66496830       0.95552000
    13  N          0.33383000       0.65986150       0.18582000
    14  N          0.66617000       0.15986150       0.31418000
    15  N          0.66617000       0.34013850       0.81418000
    16  N          0.33383000       0.84013850       0.68582000
    17  N          0.18793000       0.81945150       0.19462000
    18  N          0.81207000       0.31945150       0.30538000
    19  N          0.81207000       0.18054850       0.80538000
    20  N          0.18793000       0.68054850       0.69462000
    21  H          0.18890000       0.75930000       0.21940000
    22  H          0.81110000       0.25930000       0.28060000
    23  H          0.81110000       0.24070000       0.78060000
    24  H          0.18890000       0.74070000       0.71940000
    25  N          0.77437000       0.76792000       0.42572000
    26  N          0.22563000       0.26792000       0.07428000
    27  N          0.22563000       0.23208000       0.57428000
    28  N          0.77437000       0.73208000       0.92572000
    29  C          0.40653000       0.57962000       0.18263000
    30  C          0.59347000       0.07962000       0.31737000
    31  C          0.59347000       0.42038000       0.81737000
    32  C          0.40653000       0.92038000       0.68263000
    33  H          0.40540000       0.52130000       0.22200000
    34  H          0.59460000       0.02130000       0.27800000
    35  H          0.59460000       0.47870000       0.77800000
    36  H          0.40540000       0.97870000       0.72200000
    37  C          0.48534000       0.57672000       0.12363000
    38  C          0.51466000       0.07672000       0.37637000
    39  C          0.51466000       0.42328000       0.87637000
    40  C          0.48534000       0.92328000       0.62363000
    41  H          0.53350000       0.51770000       0.12330000
    42  H          0.46650000       0.01770000       0.37670000
    43  H          0.46650000       0.48230000       0.87670000
    44  H          0.53350000       0.98230000       0.62330000
    45  C          0.49034000       0.66083000       0.06713000
    46  C          0.50966000       0.16083000       0.43287000
    47  C          0.50966000       0.33917000       0.93287000
    48  C          0.49034000       0.83917000       0.56713000
    49  H          0.54240000       0.65990000       0.02760000
    50  H          0.45760000       0.15990000       0.47240000
    51  H          0.45760000       0.34010000       0.97240000
    52  H          0.54240000       0.84010000       0.52760000
    53  C          0.41703000       0.74972000       0.06793000
    54  C          0.58297000       0.24972000       0.43207000
    55  C          0.58297000       0.25028000       0.93207000
    56  C          0.41703000       0.75028000       0.56793000
    57  C          0.41484000       0.83982000       0.01043000
    58  C          0.58516000       0.33982000       0.48957000
    59  C          0.58516000       0.16018000      -0.01043000
    60  C          0.41484000       0.66018000       0.51043000
    61  H          0.46580000       0.84340000       0.97010000
    62  H          0.53420000       0.34340000       0.52990000
    63  H          0.53420000       0.15660000       0.02990000
    64  H          0.46580000       0.65660000       0.47010000
    65  C          0.33884000       0.92202000       0.01313000
    66  C          0.66116000       0.42202000       0.48687000
    67  C          0.66116000       0.07798000      -0.01313000
    68  C          0.33884000       0.57798000       0.51313000
    69  H          0.33780000       0.98110000       0.97400000
    70  H          0.66220000       0.48110000       0.52600000
    71  H          0.66220000       0.01890000       0.02600000
    72  H          0.33780000       0.51890000       0.47400000
    73  C          0.26074000       0.91956190       0.07443000
    74  C          0.73926000       0.41956190       0.42557000
    75  C          0.73926000       0.08043810       0.92557000
    76  C          0.26074000       0.58043810       0.57443000
    77  H          0.20880000       0.97650000       0.07520000
    78  H          0.79120000       0.47650000       0.42480000
    79  H          0.79120000       0.02350000       0.92480000
    80  H          0.20880000       0.52350000       0.57520000
    81  C          0.26243000       0.83254180       0.13252000
    82  C          0.73757000       0.33254180       0.36748000
    83  C          0.73757000       0.16745820       0.86748000
    84  C          0.26243000       0.66745820       0.63252000
    85  C          0.33923000       0.74480190       0.12933000
    86  C          0.66077000       0.24480190       0.37067000
    87  C          0.66077000       0.25519810       0.87067000
    88  C          0.33923000       0.75519810       0.62933000
    89  C          0.11443000       0.88930180       0.22053000
    90  C          0.88557000       0.38930180       0.27947000
    91  C          0.88557000       0.11069820       0.77947000
    92  C          0.11443000       0.61069820       0.72053000
    93  C          0.03093000       0.85122160       0.27682000
    94  C          0.96907000       0.35122160       0.22318000
    95  C          0.96907000       0.14877840       0.72318000
    96  C          0.03093000       0.64877840       0.77682000
    97  C         -0.01324000       0.92227170       0.32943000
    98  C          0.01324000       0.42227170       0.17057000
    99  C          0.01324000       0.07772830       0.67057000
   100  C         -0.01324000       0.57772830       0.82943000
   101  H          0.01400000       0.98910000       0.33170000
   102  H         -0.01400000       0.48910000       0.16830000
   103  H         -0.01400000       0.01090000       0.66830000
   104  H          0.01400000       0.51090000       0.83170000
   105  C          0.90357000       0.89550180       0.37813000
   106  C          0.09643000       0.39550180       0.12187000
   107  C          0.09643000       0.10449820       0.62187000
   108  C          0.90357000       0.60449820       0.87813000
   109  H          0.87340000       0.94360000       0.41260000
   110  H          0.12660000       0.44360000       0.08740000
   111  H          0.12660000       0.05640000       0.58740000
   112  H          0.87340000       0.55640000       0.91260000
   113  C          0.86557000       0.79610180       0.37502000
   114  C          0.13443000       0.29610180       0.12498000
   115  C          0.13443000       0.20389820       0.62498000
   116  C          0.86557000       0.70389820       0.87502000
   117  C          0.90937000       0.72286170       0.32593000
   118  C          0.09063000       0.22286170       0.17407000
   119  C          0.09063000       0.27713830       0.67407000
   120  C          0.90937000       0.77713830       0.82593000
   121  H          0.88370000       0.65600000       0.32570000
   122  H          0.11630000       0.15600000       0.17430000
   123  H          0.11630000       0.34400000       0.67430000
   124  H          0.88370000       0.84400000       0.82570000
   125  C         -0.00763000       0.75133170       0.27693000
   126  C          0.00763000       0.25133170       0.22307000
   127  C          0.00763000       0.24866830       0.72307000
   128  C         -0.00763000       0.74866830       0.77693000
   129  H          0.02310000       0.70290000       0.24330000
   130  H         -0.02310000       0.20290000       0.25670000
   131  H         -0.02310000       0.29710000       0.75670000
   132  H          0.02310000       0.79710000       0.74330000
