data_OGEPUM01
_symmetry_space_group_name_H-M    'P1'
_symmetry_Int_Tables_number       1
loop_
_symmetry_equiv_pos_site_id
_symmetry_equiv_pos_as_xyz
1 x,y,z
_cell_length_a                   3.83133
_cell_length_b                   14.63347
_cell_length_c                   23.522313
_cell_angle_alpha                90.0
_cell_angle_beta                 90.8516
_cell_angle_gamma                90.0
loop_
_atom_site_label
_atom_site_type_symbol
_atom_site_fract_x
_atom_site_fract_y
_atom_site_fract_z
     1  O          0.06051000       0.50632000       0.75355140
     2  O          0.06051000       0.49368000       0.25355140
     3  O          0.56051000       0.00632000       0.75355140
     4  O          0.56051000      -0.00632000       0.25355140
     5  O          0.41469000       0.14253190       0.58248130
     6  O          0.41469000       0.85746810       0.08248130
     7  O          0.91469000       0.64253190       0.58248130
     8  O          0.91469000       0.35746810       0.08248130
     9  O          0.35261100       0.59622000       0.70031160
    10  O          0.35261100       0.40378000       0.20031160
    11  O          0.85261100       0.09622000       0.70031160
    12  O          0.85261100       0.90378000       0.20031160
    13  N          0.23369000       0.52162000       0.71108140
    14  N          0.23369000       0.47838000       0.21108140
    15  N          0.73369000       0.02162000       0.71108140
    16  N          0.73369000       0.97838000       0.21108140
    17  N          0.86238000       0.28962000       0.41240130
    18  N          0.86238000       0.71038000       0.91240130
    19  N          0.36238000       0.78962000       0.41240130
    20  N          0.36238000       0.21038000       0.91240130
    21  N          0.62428000       0.23022000       0.51180120
    22  N          0.62428000       0.76978000       0.01180120
    23  N          0.12428000       0.73022000       0.51180120
    24  N          0.12428000       0.26978000       0.01180120
    25  H          0.65850000       0.28600000       0.50170000
    26  H          0.65850000       0.71400000       0.00170000
    27  H          0.15850000       0.78600000       0.50170000
    28  H          0.15850000       0.21400000       0.00170000
    29  C          0.48399000       0.21793000       0.56401170
    30  C          0.48399000       0.78207000       0.06401170
    31  C         -0.01601000       0.71793000       0.56401170
    32  C         -0.01601000       0.28207000       0.06401170
    33  C          0.42228000       0.30222000       0.59924140
    34  C          0.42228000       0.69778000       0.09924140
    35  C          0.92228000       0.80222000       0.59924140
    36  C          0.92228000       0.19778000       0.09924140
    37  C          0.71939000       0.16312000       0.47259140
    38  C          0.71939000       0.83688000       0.97259140
    39  C          0.21939000       0.66312000       0.47259140
    40  C          0.21939000       0.33688000       0.97259140
    41  C          0.20301000       0.35813000       0.68808150
    42  C          0.20301000       0.64187000       0.18808150
    43  C          0.70301000       0.85813000       0.68808150
    44  C          0.70301000       0.14187000       0.18808150
    45  H          0.09980000       0.34800000       0.72310000
    46  H          0.09980000       0.65200000       0.22310000
    47  H          0.59980000       0.84800000       0.72310000
    48  H          0.59980000       0.15200000       0.22310000
    49  C          0.51129000       0.39052000       0.58421140
    50  C          0.51129000       0.60948000       0.08421140
    51  C          0.01129000       0.89052000       0.58421140
    52  C          0.01129000       0.10948000       0.08421140
    53  H          0.61210000       0.40110000       0.54910000
    54  H          0.61210000       0.59890000       0.04910000
    55  H          0.11210000       0.90110000       0.54910000
    56  H          0.11210000       0.09890000       0.04910000
    57  C          0.81061200       0.00963000       0.43922180
    58  C          0.81061200       0.99037000       0.93922180
    59  C          0.31061200       0.50963000       0.43922180
    60  C          0.31061200       0.49037000       0.93922180
    61  H          0.79690000       0.94710000       0.44590000
    62  H          0.79690000       0.05290000       0.94590000
    63  H          0.29690000       0.44710000       0.44590000
    64  H          0.29690000       0.55290000       0.94590000
    65  C          0.29738000       0.44523000       0.67119150
    66  C          0.29738000       0.55477000       0.17119150
    67  C          0.79738000       0.94523000       0.67119150
    68  C          0.79738000       0.05477000       0.17119150
    69  C          0.84929000       0.19683000       0.42012150
    70  C          0.84929000       0.80317000       0.92012150
    71  C          0.34929000       0.69683000       0.42012150
    72  C          0.34929000       0.30317000       0.92012150
    73  C          0.45331000       0.46343000       0.62031150
    74  C          0.45331000       0.53657000       0.12031150
    75  C          0.95331000       0.96343000       0.62031150
    76  C          0.95331000       0.03657000       0.12031150
    77  H          0.51760000       0.52260000       0.61050000
    78  H          0.51760000       0.47740000       0.11050000
    79  H          0.01760000       0.02260000       0.61050000
    80  H          0.01760000       0.97740000       0.11050000
    81  C          0.70251200       0.07073000       0.48157170
    82  C          0.70251200       0.92927000       0.98157170
    83  C          0.20251200       0.57073000       0.48157170
    84  C          0.20251200       0.42927000       0.98157170
    85  H          0.61930000       0.04830000       0.51580000
    86  H          0.61930000       0.95170000       0.01580000
    87  H          0.11930000       0.54830000       0.51580000
    88  H          0.11930000       0.45170000       0.01580000
    89  C          0.26701000       0.28733000       0.65144150
    90  C          0.26701000       0.71267000       0.15144150
    91  C          0.76701000       0.78733000       0.65144150
    92  C          0.76701000       0.21267000       0.15144150
    93  H          0.20530000       0.22820000       0.66180000
    94  H          0.20530000       0.77180000       0.16180000
    95  H          0.70530000       0.72820000       0.66180000
    96  H          0.70530000       0.27180000       0.16180000
    97  C          0.93481100       0.03983000       0.38881180
    98  C          0.93481100       0.96017000       0.88881180
    99  C          0.43481100       0.53983000       0.38881180
   100  C          0.43481100       0.46017000       0.88881180
   101  H          0.00430000      -0.00190000       0.36140000
   102  H          0.00430000       0.00190000       0.86140000
   103  H          0.50430000       0.49810000       0.36140000
   104  H          0.50430000       0.50190000       0.86140000
   105  C          0.08211000       0.17083000       0.32679160
   106  C          0.08211000       0.82917000       0.82679160
   107  C          0.58211000       0.67083000       0.32679160
   108  C          0.58211000       0.32917000       0.82679160
   109  H          0.15920000       0.13220000       0.29820000
   110  H          0.15920000       0.86780000       0.79820000
   111  H          0.65920000       0.63220000       0.29820000
   112  H          0.65920000       0.36780000       0.79820000
   113  C          0.95809000       0.13393000       0.37815150
   114  C          0.95809000       0.86607000       0.87815150
   115  C          0.45809000       0.63393000       0.37815150
   116  C          0.45809000       0.36607000       0.87815150
   117  C         -0.02678800       0.31953000       0.36301170
   118  C         -0.02678800       0.68047000       0.86301170
   119  C          0.47321200       0.81953000       0.36301170
   120  C          0.47321200       0.18047000       0.86301170
   121  H         -0.02520000       0.38230000       0.35690000
   122  H         -0.02520000       0.61770000       0.85690000
   123  H          0.47480000       0.88230000       0.35690000
   124  H          0.47480000       0.11770000       0.85690000
   125  C          0.08841100       0.26293000       0.31930180
   126  C          0.08841100       0.73707000       0.81930180
   127  C          0.58841100       0.76293000       0.31930180
   128  C          0.58841100       0.23707000       0.81930180
   129  H          0.16830000       0.28780000       0.28550000
   130  H          0.16830000       0.71220000       0.78550000
   131  H          0.66830000       0.78780000       0.28550000
   132  H          0.66830000       0.21220000       0.78550000
