data_OGEPUM
_symmetry_space_group_name_H-M    'P1'
_symmetry_Int_Tables_number       1
loop_
_symmetry_equiv_pos_site_id
_symmetry_equiv_pos_as_xyz
1 x,y,z
_cell_length_a                   7.523015
_cell_length_b                   25.0315
_cell_length_c                   6.959615
_cell_angle_alpha                90.0
_cell_angle_beta                 100.0813
_cell_angle_gamma                90.0
loop_
_atom_site_label
_atom_site_type_symbol
_atom_site_fract_x
_atom_site_fract_y
_atom_site_fract_z
     1  O          0.69786140       0.38934400       0.50464160
     2  O          0.30213860       0.88934400      -0.00464160
     3  O          0.30213860       0.61065600       0.49535840
     4  O          0.69786140       0.11065600       0.00464160
     5  O         -0.00273150       0.55640400       0.15111170
     6  O          0.00273150       0.05640400       0.34888830
     7  O          0.00273150       0.44359600       0.84888830
     8  O         -0.00273150       0.94359600       0.65111170
     9  O          0.80339860       0.49876400       0.22148160
    10  O          0.19660140      -0.00123600       0.27851840
    11  O          0.19660140       0.50123600       0.77851840
    12  O          0.80339860       0.00123600       0.72148160
    13  N          0.38108160       0.21834500       0.42312180
    14  N          0.61891840       0.71834500       0.07687820
    15  N          0.61891840       0.78165500       0.57687820
    16  N          0.38108160       0.28165500       0.92312180
    17  N          0.51347160       0.31652500       0.46574180
    18  N          0.48652840       0.81652500       0.03425820
    19  N          0.48652840       0.68347500       0.53425820
    20  N          0.51347160       0.18347500       0.96574180
    21  H          0.39930000       0.30690000       0.43970000
    22  H          0.60070000       0.80690000       0.06030000
    23  H          0.60070000       0.69310000       0.56030000
    24  H          0.39930000       0.19310000       0.93970000
    25  N          0.95926840       0.51288500       0.21646180
    26  N          0.04073160       0.01288500       0.28353820
    27  N          0.04073160       0.48711500       0.78353820
    28  N          0.95926840       0.98711500       0.71646180
    29  C          0.31312000       0.16969600       0.39962000
    30  C          0.68688000       0.66969600       0.10038000
    31  C          0.68688000       0.83030400       0.60038000
    32  C          0.31312000       0.33030400       0.89962000
    33  H          0.18600000       0.16630000       0.36190000
    34  H          0.81400000       0.66630000       0.13810000
    35  H          0.81400000       0.83370000       0.63810000
    36  H          0.18600000       0.33370000       0.86190000
    37  C          0.41632000       0.12257600       0.42672000
    38  C          0.58368000       0.62257600       0.07328000
    39  C          0.58368000       0.87742400       0.57328000
    40  C          0.41632000       0.37742400       0.92672000
    41  H          0.36000000       0.08860000       0.40730000
    42  H          0.64000000       0.58860000       0.09270000
    43  H          0.64000000       0.91140000       0.59270000
    44  H          0.36000000       0.41140000       0.90730000
    45  C          0.59902000       0.12671600       0.48162000
    46  C          0.40098000       0.62671600       0.01838000
    47  C          0.40098000       0.87328400       0.51838000
    48  C          0.59902000       0.37328400      -0.01838000
    49  H          0.67130000       0.09540000       0.50170000
    50  H          0.32870000       0.59540000      -0.00170000
    51  H          0.32870000       0.90460000       0.49830000
    52  H          0.67130000       0.40460000       0.00170000
    53  C          0.86832000       0.18552600       0.56312000
    54  C          0.13168000       0.68552600       0.93688000
    55  C          0.13168000       0.81447400       0.43688000
    56  C          0.86832000       0.31447400       0.06312000
    57  H          0.94730000       0.15560000       0.58200000
    58  H          0.05270000       0.65560000       0.91800000
    59  H          0.05270000       0.84440000       0.41800000
    60  H          0.94730000       0.34440000       0.08200000
    61  C          0.93662000       0.23613600       0.58912000
    62  C          0.06338000       0.73613600       0.91088000
    63  C          0.06338000       0.76386400       0.41088000
    64  C          0.93662000       0.26386400       0.08912000
    65  H          0.06310000       0.24100000       0.62730000
    66  H          0.93690000       0.74100000       0.87270000
    67  H          0.93690000       0.75900000       0.37270000
    68  H          0.06310000       0.25900000       0.12730000
    69  C          0.82292000       0.28130600       0.56032000
    70  C          0.17708000       0.78130600       0.93968000
    71  C          0.17708000       0.71869400       0.43968000
    72  C          0.82292000       0.21869400       0.06032000
    73  H          0.87290000       0.31610000       0.58030000
    74  H          0.12710000       0.81610000       0.91970000
    75  H          0.12710000       0.68390000       0.41970000
    76  H          0.87290000       0.18390000       0.08030000
    77  C          0.64030190       0.27499500       0.50362000
    78  C          0.35969810       0.77499500      -0.00362000
    79  C          0.35969810       0.72500500       0.49638000
    80  C          0.64030190       0.22500500       0.00362000
    81  C          0.56440190       0.22250500       0.47782000
    82  C          0.43559810       0.72250500       0.02218000
    83  C          0.43559810       0.77749500       0.52218000
    84  C          0.56440190       0.27749500       0.97782000
    85  C          0.68072000       0.17763600       0.50842000
    86  C          0.31928000       0.67763600      -0.00842000
    87  C          0.31928000       0.82236400       0.49158000
    88  C          0.68072000       0.32236400       0.00842000
    89  C          0.54650190       0.36987600       0.46462000
    90  C          0.45349810       0.86987600       0.03538000
    91  C          0.45349810       0.63012400       0.53538000
    92  C          0.54650190       0.13012400       0.96462000
    93  C          0.38470190       0.40539500       0.40612000
    94  C          0.61529810       0.90539500       0.09388000
    95  C          0.61529810       0.59460500       0.59388000
    96  C          0.38470190       0.09460500       0.90612000
    97  C          0.20742000       0.39106600       0.41892000
    98  C          0.79258000       0.89106600       0.08108000
    99  C          0.79258000       0.60893400       0.58108000
   100  C          0.20742000       0.10893400       0.91892000
   101  H          0.18330000       0.35690000       0.46790000
   102  H          0.81670000       0.85690000       0.03210000
   103  H          0.81670000       0.64310000       0.53210000
   104  H          0.18330000       0.14310000       0.96790000
   105  C          0.06669190       0.42655600       0.36032000
   106  C          0.93330810       0.92655600       0.13968000
   107  C          0.93330810       0.57344400       0.63968000
   108  C          0.06669190       0.07344400       0.86032000
   109  H          0.94600000       0.41740000       0.36980000
   110  H          0.05400000       0.91740000       0.13020000
   111  H          0.05400000       0.58260000       0.63020000
   112  H          0.94600000       0.08260000       0.86980000
   113  C          0.10717180       0.47577600       0.28762000
   114  C          0.89282820       0.97577600       0.21238000
   115  C          0.89282820       0.52422400       0.71238000
   116  C          0.10717180       0.02422400       0.78762000
   117  C          0.28142000       0.49139600       0.27692000
   118  C          0.71858000       0.99139600       0.22308000
   119  C          0.71858000       0.50860400       0.72308000
   120  C          0.28142000       0.00860400       0.77692000
   121  H          0.30510000       0.52580000       0.22950000
   122  H          0.69490000       0.02580000       0.27050000
   123  H          0.69490000       0.47420000       0.77050000
   124  H          0.30510000       0.97420000       0.72950000
   125  C          0.42022000       0.45575600       0.33692000
   126  C          0.57978000       0.95575600       0.16308000
   127  C          0.57978000       0.54424400       0.66308000
   128  C          0.42022000       0.04424400       0.83692000
   129  H          0.54100000       0.46570000       0.33080000
   130  H          0.45900000       0.96570000       0.16920000
   131  H          0.45900000       0.53430000       0.66920000
   132  H          0.54100000       0.03430000       0.83080000
