data_OJIGAP
_symmetry_space_group_name_H-M    'P1'
_symmetry_Int_Tables_number       1
loop_
_symmetry_equiv_pos_site_id
_symmetry_equiv_pos_as_xyz
1 x,y,z
_cell_length_a                   10.57506
_cell_length_b                   12.87097
_cell_length_c                   11.06126
_cell_angle_alpha                90.0
_cell_angle_beta                 103.07101
_cell_angle_gamma                90.0
loop_
_atom_site_label
_atom_site_type_symbol
_atom_site_fract_x
_atom_site_fract_y
_atom_site_fract_z
     1  O          0.58424900      -0.00046700       0.25511100
     2  O          0.91575100       0.49953300       0.24488900
     3  O          0.41575100       0.00046700       0.74488900
     4  O          0.08424900       0.50046700       0.75511100
     5  O          0.88268900       0.71955200       0.91352900
     6  O          0.61731100       0.21955200       0.58647100
     7  O          0.11731100       0.28044800       0.08647100
     8  O          0.38268900       0.78044800       0.41352900
     9  O          0.92913100       0.89458200       0.82490100
    10  O          0.57086900       0.39458200       0.67509900
    11  O          0.07086900       0.10541800       0.17509900
    12  O          0.42913100       0.60541800       0.32490100
    13  O          0.68790100       0.45604700       0.08894100
    14  O          0.81209900       0.95604700       0.41105900
    15  O          0.31209900       0.54395300       0.91105900
    16  O          0.18790100       0.04395300       0.58894100
    17  C          0.20500120       0.76996900       0.11449110
    18  C          0.29499880       0.26996900       0.38550890
    19  C          0.79499880       0.23003100       0.88550890
    20  C          0.70500120       0.73003100       0.61449110
    21  C          0.08989130       0.71821900       0.06510120
    22  C          0.41010870       0.21821900       0.43489880
    23  C          0.91010870       0.28178100       0.93489880
    24  C          0.58989130       0.78178100       0.56510120
    25  C         -0.00123120       0.76247900       0.96951890
    26  C          0.50123120       0.26247900       0.53048110
    27  C          0.00123120       0.23752100       0.03048110
    28  C          0.49876880       0.73752100       0.46951890
    29  C          0.02380110       0.86001100       0.92169900
    30  C          0.47619890       0.36001100       0.57830100
    31  C          0.97619890       0.13998900       0.07830100
    32  C          0.52380110       0.63998900       0.42169900
    33  C          0.13718110       0.91172100       0.97235900
    34  C          0.36281890       0.41172100       0.52764100
    35  C          0.86281890       0.08827900       0.02764100
    36  C          0.63718110       0.58827900       0.47235900
    37  C          0.23001110       0.86704100       0.07017100
    38  C          0.26998890       0.36704100       0.42982900
    39  C          0.76998890       0.13295900       0.92982900
    40  C          0.73001110       0.63295900       0.57017100
    41  C          0.35077110       0.91921100       0.12767110
    42  C          0.14922890       0.41921100       0.37232890
    43  C          0.64922890       0.08078900       0.87232890
    44  C          0.85077110       0.58078900       0.62767110
    45  C          0.38663120       0.01637100       0.10995120
    46  C          0.11336880       0.51637100       0.39004880
    47  C          0.61336880       0.98362900       0.89004880
    48  C          0.88663120       0.48362900       0.60995120
    49  C          0.51328110       0.05562900       0.17764110
    50  C         -0.01328110       0.55562900       0.32235890
    51  C          0.48671890       0.94437100       0.82235890
    52  C          0.01328110       0.44437100       0.67764110
    53  C          0.55546100       0.16189900       0.15413100
    54  C          0.94453900       0.66189900       0.34586900
    55  C          0.44453900       0.83810100       0.84586900
    56  C          0.05546100       0.33810100       0.65413100
    57  C          0.47899120       0.23125100       0.07154130
    58  C          0.02100880       0.73125100       0.42845870
    59  C          0.52100880       0.76874900       0.92845870
    60  C          0.97899120       0.26874900       0.57154130
    61  C          0.52386130       0.32897110       0.05085140
    62  C          0.97613870       0.82897110       0.44914860
    63  C          0.47613870       0.67102890       0.94914860
    64  C          0.02386130       0.17102890       0.55085140
    65  C          0.64734110       0.35964900       0.11301120
    66  C          0.85265890       0.85964900       0.38698880
    67  C          0.35265890       0.64035100       0.88698880
    68  C          0.14734110       0.14035100       0.61301120
    69  C          0.72479120       0.29274100       0.19680120
    70  C          0.77520880       0.79274100       0.30319880
    71  C          0.27520880       0.70725900       0.80319880
    72  C          0.22479120       0.20725900       0.69680120
    73  C          0.67892120       0.19538100       0.21612120
    74  C          0.82107880       0.69538100       0.28387880
    75  C          0.32107880       0.80461900       0.78387880
    76  C          0.17892120       0.30461900       0.71612120
    77  C          0.85588000       0.61798840       0.94974810
    78  C          0.64412000       0.11798840       0.55025190
    79  C          0.14412000       0.38201160       0.05025190
    80  C          0.35588000       0.88201160       0.44974810
    81  C          0.95903830       0.98139860       0.75737850
    82  C          0.54096170       0.48139860       0.74262150
    83  C          0.04096170       0.01860140       0.24262150
    84  C          0.45903830       0.51860140       0.25737850
    85  H          0.76820000       0.46811500       0.14320000
    86  H          0.73180000       0.96811500       0.35680000
    87  H          0.23180000       0.53188500       0.85680000
    88  H          0.26820000       0.03188500       0.64320000
    89  H          0.26941500       0.73858800       0.18311500
    90  H          0.23058500       0.23858800       0.31688500
    91  H          0.73058500       0.26141200       0.81688500
    92  H          0.76941500       0.76141200       0.68311500
    93  H          0.07611500       0.65148700       0.09751400
    94  H          0.42388500       0.15148700       0.40248600
    95  H          0.92388500       0.34851300       0.90248600
    96  H          0.57611500       0.84851300       0.59751400
    97  H          0.15291300       0.98128900       0.94028700
    98  H          0.34708700       0.48128900       0.55971300
    99  H          0.84708700       0.01871100       0.05971300
   100  H          0.65291300       0.51871100       0.44028700
   101  H          0.40941400       0.87678900       0.18671400
   102  H          0.09058600       0.37678900       0.31328600
   103  H          0.59058600       0.12321100       0.81328600
   104  H          0.90941400       0.62321100       0.68671400
   105  H          0.32901600       0.06161300       0.05271500
   106  H          0.17098400       0.56161300       0.44728500
   107  H          0.67098400       0.93838700       0.94728500
   108  H          0.82901600       0.43838700       0.55271500
   109  H          0.39121700       0.21071300       0.02511500
   110  H          0.10878300       0.71071300       0.47488500
   111  H          0.60878300       0.78928700       0.97488500
   112  H          0.89121700       0.28928700       0.52511500
   113  H          0.46931700       0.37671300      -0.00891600
   114  H          0.03068300       0.87671300       0.50891600
   115  H          0.53068300       0.62328700       0.00891600
   116  H          0.96931700       0.12328700       0.49108400
   117  H          0.81211600       0.31331200       0.23921400
   118  H          0.68788400       0.81331200       0.26078600
   119  H          0.18788400       0.68668800       0.76078600
   120  H          0.31211600       0.18668800       0.73921400
   121  H          0.73371500       0.14691200       0.27381400
   122  H          0.76628500       0.64691200       0.22618600
   123  H          0.26628500       0.85308800       0.72618600
   124  H          0.23371500       0.35308800       0.77381400
   125  H          0.92080000       0.56658200       0.92880000
   126  H          0.57920000       0.06658200       0.57120000
   127  H          0.07920000       0.43341800       0.07120000
   128  H          0.42080000       0.93341800       0.42880000
   129  H          0.76680000       0.60338400       0.89980000
   130  H          0.73320000       0.10338400       0.60020000
   131  H          0.23320000       0.39661600       0.10020000
   132  H          0.26680000       0.89661600       0.39980000
   133  H          0.86080000       0.61258400       0.03820000
   134  H          0.63920000       0.11258400       0.46180000
   135  H          0.13920000       0.38741600       0.96180000
   136  H          0.36080000       0.88741600       0.53820000
   137  H          0.88488100       0.98518600       0.68238100
   138  H          0.61511900       0.48518600       0.81761900
   139  H          0.11511900       0.01481400       0.31761900
   140  H          0.38488100       0.51481400       0.18238100
   141  H          0.96458300       0.04591500       0.80718300
   142  H          0.53541700       0.54591500       0.69281700
   143  H          0.03541700       0.95408500       0.19281700
   144  H          0.46458300       0.45408500       0.30718300
   145  H          0.04301900       0.96928600       0.73148300
   146  H          0.45698100       0.46928600       0.76851700
   147  H          0.95698100       0.03071400       0.26851700
   148  H          0.54301900       0.53071400       0.23148300
