data_OJIGAP02
_symmetry_space_group_name_H-M    'P1'
_symmetry_Int_Tables_number       1
loop_
_symmetry_equiv_pos_site_id
_symmetry_equiv_pos_as_xyz
1 x,y,z
_cell_length_a                   7.73271
_cell_length_b                   14.39202
_cell_length_c                   13.04212
_cell_angle_alpha                90.0
_cell_angle_beta                 106.5842
_cell_angle_gamma                90.0
loop_
_atom_site_label
_atom_site_type_symbol
_atom_site_fract_x
_atom_site_fract_y
_atom_site_fract_z
     1  O          0.30076130       0.57503600       0.21331700
     2  O          0.69923870       0.07503600       0.28668300
     3  O          0.69923870       0.42496400       0.78668300
     4  O          0.30076130       0.92496400       0.71331700
     5  O         -0.02109130       0.19417600       0.61073700
     6  O          0.02109130       0.69417600       0.88926300
     7  O          0.02109130       0.80582400       0.38926300
     8  O         -0.02109130       0.30582400       0.11073700
     9  O          0.11951130       0.34587600       0.69958700
    10  O          0.88048870       0.84587600       0.80041300
    11  O          0.88048870       0.65412400       0.30041300
    12  O          0.11951130       0.15412400       0.19958700
    13  O          0.64904140       0.94949700       0.42951800
    14  O          0.35095860       0.44949700       0.07048200
    15  O          0.35095860       0.05050300       0.57048200
    16  O          0.64904140       0.55050300       0.92951800
    17  H          0.65581600       0.98055800       0.37534500
    18  H          0.34418400       0.48055800       0.12465500
    19  H          0.34418400       0.01944200       0.62465500
    20  H          0.65581600       0.51944200       0.87534500
    21  C          0.06015170       0.30825900       0.37636100
    22  C          0.93984830       0.80825900       0.12363900
    23  C          0.93984830       0.69174100       0.62363900
    24  C          0.06015170       0.19174100       0.87636100
    25  H          0.04418500       0.29798300       0.30228200
    26  H          0.95581500       0.79798300       0.19771800
    27  H          0.95581500       0.70201700       0.69771800
    28  H          0.04418500       0.20201700       0.80228200
    29  C          0.00337170       0.24090900       0.43640100
    30  C         -0.00337170       0.74090900       0.06359900
    31  C         -0.00337170       0.75909100       0.56359900
    32  C          0.00337170       0.25909100       0.93640100
    33  H          0.94903300       0.18519200       0.40327000
    34  H          0.05096700       0.68519200       0.09673000
    35  H          0.05096700       0.81480800       0.59673000
    36  H          0.94903300       0.31480800       0.90327000
    37  C          0.02623170       0.25530900       0.54425100
    38  C          0.97376830       0.75530900       0.95574900
    39  C          0.97376830       0.74469100       0.45574900
    40  C          0.02623170       0.24469100       0.04425100
    41  C          0.10593170       0.33910900       0.59302100
    42  C          0.89406830       0.83910900       0.90697900
    43  C          0.89406830       0.66089100       0.40697900
    44  C          0.10593170       0.16089100       0.09302100
    45  C          0.16148170       0.40524900       0.53333100
    46  C          0.83851830       0.90524900       0.96666900
    47  C          0.83851830       0.59475100       0.46666900
    48  C          0.16148170       0.09475100       0.03333100
    49  H          0.21468300       0.46127800       0.56615500
    50  H          0.78531700       0.96127800       0.93384500
    51  H          0.78531700       0.53872200       0.43384500
    52  H          0.21468300       0.03872200       0.06615500
    53  C          0.13981170       0.39024800       0.42334100
    54  C          0.86018830       0.89024800       0.07665900
    55  C          0.86018830       0.60975200       0.57665900
    56  C          0.13981170       0.10975200       0.92334100
    57  C          0.19934170       0.45721900       0.35710100
    58  C          0.80065830       0.95721900       0.14289900
    59  C          0.80065830       0.54278100       0.64289900
    60  C          0.19934170       0.04278100       0.85710100
    61  H          0.17990200       0.44022800       0.28429400
    62  H          0.82009800       0.94022800       0.21570600
    63  H          0.82009800       0.55977200       0.71570600
    64  H          0.17990200       0.05977200       0.78429400
    65  C          0.27817170       0.53984900       0.38577100
    66  C          0.72182830       0.03984900       0.11422900
    67  C          0.72182830       0.46015100       0.61422900
    68  C          0.27817170       0.96015100       0.88577100
    69  H          0.30424700       0.55934100       0.45818000
    70  H          0.69575300       0.05934100       0.04182000
    71  H          0.69575300       0.44065900       0.54182000
    72  H          0.30424700       0.94065900       0.95818000
    73  C          0.32501160       0.60082900       0.30746100
    74  C          0.67498840       0.10082900       0.19253900
    75  C          0.67498840       0.39917100       0.69253900
    76  C          0.32501160       0.89917100       0.80746100
    77  C          0.40313160       0.69338900       0.34054100
    78  C          0.59686840       0.19338900       0.15945900
    79  C          0.59686840       0.30661100       0.65945900
    80  C          0.40313160       0.80661100       0.84054100
    81  C          0.45630180       0.72342900       0.44708100
    82  C          0.54369820       0.22342900       0.05291900
    83  C          0.54369820       0.27657100       0.55291900
    84  C          0.45630180       0.77657100       0.94708100
    85  H          0.43615100       0.68423600       0.50116500
    86  H          0.56384900       0.18423600      -0.00116500
    87  H          0.56384900       0.31576400       0.49883500
    88  H          0.43615100       0.81576400       0.00116500
    89  C          0.53707190       0.80845100       0.47507110
    90  C          0.46292810       0.30845100       0.02492890
    91  C          0.46292810       0.19154900       0.52492890
    92  C          0.53707190       0.69154900       0.97507110
    93  H          0.57328200       0.82706600       0.54798400
    94  H          0.42671800       0.32706600       0.95201600
    95  H          0.42671800       0.17293400       0.45201600
    96  H          0.57328200       0.67293400       0.04798400
    97  C          0.56598170       0.86741900       0.39681110
    98  C          0.43401830       0.36741900       0.10318890
    99  C          0.43401830       0.13258100       0.60318890
   100  C          0.56598170       0.63258100       0.89681110
   101  C          0.51083180       0.84006900       0.28999110
   102  C          0.48916820       0.34006900       0.21000890
   103  C          0.48916820       0.15993100       0.71000890
   104  C          0.51083180       0.65993100       0.78999110
   105  H          0.52705000       0.88046700       0.23587400
   106  H          0.47295000       0.38046700       0.26412600
   107  H          0.47295000       0.11953300       0.76412600
   108  H          0.52705000       0.61953300       0.73587400
   109  C          0.43240180       0.75387900       0.26312100
   110  C          0.56759820       0.25387900       0.23687900
   111  C          0.56759820       0.24612100       0.73687900
   112  C          0.43240180       0.74612100       0.76312100
   113  H          0.39743100       0.73517100       0.19023100
   114  H          0.60256900       0.23517100       0.30976900
   115  H          0.60256900       0.26482900       0.80976900
   116  H          0.39743100       0.76482900       0.69023100
   117  C          0.89918000       0.10859900       0.56469110
   118  C          0.10082000       0.60859900       0.93530890
   119  C          0.10082000       0.89140100       0.43530890
   120  C          0.89918000       0.39140100       0.06469110
   121  H          0.87100200       0.07040900       0.62003400
   122  H          0.12899800       0.57040900       0.87996600
   123  H          0.12899800       0.92959100       0.37996600
   124  H          0.87100200       0.42959100       0.12003400
   125  H          0.78806800       0.12157700       0.50777700
   126  H          0.21193200       0.62157700      -0.00777700
   127  H          0.21193200       0.87842300       0.49222300
   128  H          0.78806800       0.37842300       0.00777700
   129  H         -0.01602600       0.07514400       0.53470900
   130  H          0.01602600       0.57514400       0.96529100
   131  H          0.01602600       0.92485600       0.46529100
   132  H         -0.01602600       0.42485600       0.03470900
   133  C          0.20985190       0.42572900       0.75431100
   134  C          0.79014810       0.92572900       0.74568900
   135  C          0.79014810       0.57427100       0.24568900
   136  C          0.20985190       0.07427100       0.25431100
   137  H          0.21126100       0.42300500       0.82962700
   138  H          0.78873900       0.92300500       0.67037300
   139  H          0.78873900       0.57699500       0.17037300
   140  H          0.21126100       0.07699500       0.32962700
   141  H          0.33403700       0.42708600       0.74956300
   142  H          0.66596300       0.92708600       0.75043700
   143  H          0.66596300       0.57291400       0.25043700
   144  H          0.33403700       0.07291400       0.24956300
   145  H          0.14631800       0.48195100       0.72135600
   146  H          0.85368200       0.98195100       0.77864400
   147  H          0.85368200       0.51804900       0.27864400
   148  H          0.14631800       0.01804900       0.22135600
