data_OJIGAP01
_symmetry_space_group_name_H-M    'P1'
_symmetry_Int_Tables_number       1
loop_
_symmetry_equiv_pos_site_id
_symmetry_equiv_pos_as_xyz
1 x,y,z
_cell_length_a                   15.143501
_cell_length_b                   8.436401
_cell_length_c                   22.94542
_cell_angle_alpha                90.0
_cell_angle_beta                 90.0
_cell_angle_gamma                90.0
loop_
_atom_site_label
_atom_site_type_symbol
_atom_site_fract_x
_atom_site_fract_y
_atom_site_fract_z
     1  O          0.35344700       0.04833150       0.56975500
     2  O          0.14655300       0.95166850       0.06975500
     3  O          0.64655300       0.54833150       0.93024500
     4  O          0.85344700       0.45166850       0.43024500
     5  O          0.64655300       0.95166850       0.43024500
     6  O          0.85344700       0.04833150       0.93024500
     7  O          0.35344700       0.45166850       0.06975500
     8  O          0.14655300       0.54833150       0.56975500
     9  H          0.30540000       0.05980000       0.55380000
    10  H          0.19460000       0.94020000       0.05380000
    11  H          0.69460000       0.55980000       0.94620000
    12  H          0.80540000       0.44020000       0.44620000
    13  H          0.69460000       0.94020000       0.44620000
    14  H          0.80540000       0.05980000       0.94620000
    15  H          0.30540000       0.44020000       0.05380000
    16  H          0.19460000       0.55980000       0.55380000
    17  O          0.69247600       0.40373150       0.47932500
    18  O          0.80752400       0.59626850       0.97932500
    19  O          0.30752400       0.90373150       0.02067500
    20  O          0.19247600       0.09626850       0.52067500
    21  O          0.30752400       0.59626850       0.52067500
    22  O          0.19247600       0.40373150       0.02067500
    23  O          0.69247600       0.09626850       0.97932500
    24  O          0.80752400       0.90373150       0.47932500
    25  O          0.52144700       0.68821140       0.18477400
    26  O          0.97855300       0.31178860       0.68477400
    27  O          0.47855300       0.18821140       0.31522600
    28  O          0.02144700       0.81178860       0.81522600
    29  O          0.47855300       0.31178860       0.81522600
    30  O          0.02144700       0.68821140       0.31522600
    31  O          0.52144700       0.81178860       0.68477400
    32  O          0.97855300       0.18821140       0.18477400
    33  O          0.64891800       0.87474160       0.15770500
    34  O          0.85108200       0.12525840       0.65770500
    35  O          0.35108200       0.37474160       0.34229500
    36  O          0.14891800       0.62525840       0.84229500
    37  O          0.35108200       0.12525840       0.84229500
    38  O          0.14891800       0.87474160       0.34229500
    39  O          0.64891800       0.62525840       0.65770500
    40  O          0.85108200       0.37474160       0.15770500
    41  C          0.54831800       0.30167160       0.48339500
    42  C          0.95168200       0.69832840       0.98339500
    43  C          0.45168200       0.80167160       0.01660500
    44  C          0.04831800       0.19832840       0.51660500
    45  C          0.45168200       0.69832840       0.51660500
    46  C          0.04831800       0.30167160       0.01660500
    47  C          0.54831800       0.19832840       0.98339500
    48  C          0.95168200       0.80167160       0.48339500
    49  C          0.56558900       0.21781190       0.53484600
    50  C          0.93441100       0.78218810       0.03484600
    51  C          0.43441100       0.71781190       0.96515400
    52  C          0.06558900       0.28218810       0.46515400
    53  C          0.43441100       0.78218810       0.46515400
    54  C          0.06558900       0.21781190       0.96515400
    55  C          0.56558900       0.28218810       0.03484600
    56  C          0.93441100       0.71781190       0.53484600
    57  H          0.62240000       0.21900000       0.55030000
    58  H          0.87760000       0.78100000       0.05030000
    59  H          0.37760000       0.71900000       0.94970000
    60  H          0.12240000       0.28100000       0.44970000
    61  H          0.37760000       0.78100000       0.44970000
    62  H          0.12240000       0.21900000       0.94970000
    63  H          0.62240000       0.28100000       0.05030000
    64  H          0.87760000       0.71900000       0.55030000
    65  C          0.50099900       0.13432000       0.56289600
    66  C         -0.00099900       0.86568000       0.06289600
    67  C          0.49900100       0.63432000       0.93710400
    68  C          0.00099900       0.36568000       0.43710400
    69  C          0.49900100       0.86568000       0.43710400
    70  C          0.00099900       0.13432000       0.93710400
    71  C          0.50099900       0.36568000       0.06289600
    72  C         -0.00099900       0.63432000       0.56289600
    73  H          0.51420000       0.07860000       0.59680000
    74  H          0.98580000       0.92140000       0.09680000
    75  H          0.48580000       0.57860000       0.90320000
    76  H          0.01420000       0.42140000       0.40320000
    77  H          0.48580000       0.92140000       0.40320000
    78  H          0.01420000       0.07860000       0.90320000
    79  H          0.51420000       0.42140000       0.09680000
    80  H          0.98580000       0.57860000       0.59680000
    81  C          0.41531900       0.13271170       0.54069600
    82  C          0.08468100       0.86728830       0.04069600
    83  C          0.58468100       0.63271170       0.95930400
    84  C          0.91531900       0.36728830       0.45930400
    85  C          0.58468100       0.86728830       0.45930400
    86  C          0.91531900       0.13271170       0.95930400
    87  C          0.41531900       0.36728830       0.04069600
    88  C          0.08468100       0.63271170       0.54069600
    89  C          0.39652900       0.21501180       0.48989600
    90  C          0.10347100       0.78498820       0.98989600
    91  C          0.60347100       0.71501180       0.01010400
    92  C          0.89652900       0.28498820       0.51010400
    93  C          0.60347100       0.78498820       0.51010400
    94  C          0.89652900       0.21501180       0.01010400
    95  C          0.39652900       0.28498820       0.98989600
    96  C          0.10347100       0.71501180       0.48989600
    97  H          0.33950000       0.21440000       0.47490000
    98  H          0.16050000       0.78560000       0.97490000
    99  H          0.66050000       0.71440000       0.02510000
   100  H          0.83950000       0.28560000       0.52510000
   101  H          0.66050000       0.78560000       0.52510000
   102  H          0.83950000       0.21440000       0.02510000
   103  H          0.33950000       0.28560000       0.97490000
   104  H          0.16050000       0.71440000       0.47490000
   105  C          0.46232900       0.29769170       0.46166600
   106  C          0.03767100       0.70230830       0.96166600
   107  C          0.53767100       0.79769170       0.03833400
   108  C          0.96232900       0.20230830       0.53833400
   109  C          0.53767100       0.70230830       0.53833400
   110  C          0.96232900       0.29769170       0.03833400
   111  C          0.46232900       0.20230830       0.96166600
   112  C          0.03767100       0.79769170       0.46166600
   113  H          0.44910000       0.35190000       0.42750000
   114  H          0.05090000       0.64810000       0.92750000
   115  H          0.55090000       0.85190000       0.07250000
   116  H          0.94910000       0.14810000       0.57250000
   117  H          0.55090000       0.64810000       0.57250000
   118  H          0.94910000       0.35190000       0.07250000
   119  H          0.44910000       0.14810000       0.92750000
   120  H          0.05090000       0.85190000       0.42750000
   121  C          0.61991800       0.39056170       0.45507600
   122  C          0.88008200       0.60943830       0.95507600
   123  C          0.38008200       0.89056170       0.04492400
   124  C          0.11991800       0.10943830       0.54492400
   125  C          0.38008200       0.60943830       0.54492400
   126  C          0.11991800       0.39056170       0.04492400
   127  C          0.61991800       0.10943830       0.95507600
   128  C          0.88008200       0.89056170       0.45507600
   129  C          0.60426800       0.46360160       0.39746500
   130  C          0.89573200       0.53639840       0.89746500
   131  C          0.39573200       0.96360160       0.10253500
   132  C          0.10426800       0.03639840       0.60253500
   133  C          0.39573200       0.53639840       0.60253500
   134  C          0.10426800       0.46360160       0.10253500
   135  C          0.60426800       0.03639840       0.89746500
   136  C          0.89573200       0.96360160       0.39746500
   137  H          0.55570000       0.43170000       0.37560000
   138  H          0.94430000       0.56830000       0.87560000
   139  H          0.44430000       0.93170000       0.12440000
   140  H          0.05570000       0.06830000       0.62440000
   141  H          0.44430000       0.56830000       0.62440000
   142  H          0.05570000       0.43170000       0.12440000
   143  H          0.55570000       0.06830000       0.87560000
   144  H          0.94430000       0.93170000       0.37560000
   145  C          0.65801800       0.57388160       0.37626600
   146  C          0.84198200       0.42611840       0.87626600
   147  C          0.34198200       0.07388160       0.12373400
   148  C          0.15801800       0.92611840       0.62373400
   149  C          0.34198200       0.42611840       0.62373400
   150  C          0.15801800       0.57388160       0.12373400
   151  C          0.65801800       0.92611840       0.87626600
   152  C          0.84198200       0.07388160       0.37626600
   153  H          0.70450000       0.60390000       0.40040000
   154  H          0.79550000       0.39610000       0.90040000
   155  H          0.29550000       0.10390000       0.09960000
   156  H          0.20450000       0.89610000       0.59960000
   157  H          0.29550000       0.39610000       0.59960000
   158  H          0.20450000       0.60390000       0.09960000
   159  H          0.70450000       0.89610000       0.90040000
   160  H          0.79550000       0.10390000       0.40040000
   161  C          0.65336800       0.65384150       0.31995500
   162  C          0.84663200       0.34615850       0.81995500
   163  C          0.34663200       0.15384150       0.18004500
   164  C          0.15336800       0.84615850       0.68004500
   165  C          0.34663200       0.34615850       0.68004500
   166  C          0.15336800       0.65384150       0.18004500
   167  C          0.65336800       0.84615850       0.81995500
   168  C          0.84663200       0.15384150       0.31995500
   169  C          0.58497800       0.62733150       0.27941500
   170  C          0.91502200       0.37266850       0.77941500
   171  C          0.41502200       0.12733150       0.22058500
   172  C          0.08497800       0.87266850       0.72058500
   173  C          0.41502200       0.37266850       0.72058500
   174  C          0.08497800       0.62733150       0.22058500
   175  C          0.58497800       0.87266850       0.77941500
   176  C          0.91502200       0.12733150       0.27941500
   177  H          0.53930000       0.55800000       0.28860000
   178  H          0.96070000       0.44200000       0.78860000
   179  H          0.46070000       0.05800000       0.21140000
   180  H          0.03930000       0.94200000       0.71140000
   181  H          0.46070000       0.44200000       0.71140000
   182  H          0.03930000       0.55800000       0.21140000
   183  H          0.53930000       0.94200000       0.78860000
   184  H          0.96070000       0.05800000       0.28860000
   185  C          0.58516800       0.70317160       0.22628500
   186  C          0.91483200       0.29682840       0.72628500
   187  C          0.41483200       0.20317160       0.27371500
   188  C          0.08516800       0.79682840       0.77371500
   189  C          0.41483200       0.29682840       0.77371500
   190  C          0.08516800       0.70317160       0.27371500
   191  C          0.58516800       0.79682840       0.72628500
   192  C          0.91483200       0.20317160       0.22628500
   193  C          0.65482900       0.80698170       0.21138600
   194  C          0.84517100       0.19301830       0.71138600
   195  C          0.34517100       0.30698170       0.28861400
   196  C          0.15482900       0.69301830       0.78861400
   197  C          0.34517100       0.19301830       0.78861400
   198  C          0.15482900       0.80698170       0.28861400
   199  C          0.65482900       0.69301830       0.71138600
   200  C          0.84517100       0.30698170       0.21138600
   201  C          0.72135900       0.83476170       0.25115600
   202  C          0.77864100       0.16523830       0.75115600
   203  C          0.27864100       0.33476170       0.24884400
   204  C          0.22135900       0.66523830       0.74884400
   205  C          0.27864100       0.16523830       0.74884400
   206  C          0.22135900       0.83476170       0.24884400
   207  C          0.72135900       0.66523830       0.75115600
   208  C          0.77864100       0.33476170       0.25115600
   209  H          0.76710000       0.90400000       0.24200000
   210  H          0.73290000       0.09600000       0.74200000
   211  H          0.23290000       0.40400000       0.25800000
   212  H          0.26710000       0.59600000       0.75800000
   213  H          0.23290000       0.09600000       0.75800000
   214  H          0.26710000       0.90400000       0.25800000
   215  H          0.76710000       0.59600000       0.74200000
   216  H          0.73290000       0.40400000       0.24200000
   217  C          0.71971900       0.75892180       0.30489600
   218  C          0.78028100       0.24107820       0.80489600
   219  C          0.28028100       0.25892180       0.19510400
   220  C          0.21971900       0.74107820       0.69510400
   221  C          0.28028100       0.24107820       0.69510400
   222  C          0.21971900       0.75892180       0.19510400
   223  C          0.71971900       0.74107820       0.80489600
   224  C          0.78028100       0.25892180       0.30489600
   225  H          0.76450000       0.77940000       0.33150000
   226  H          0.73550000       0.22060000       0.83150000
   227  H          0.23550000       0.27940000       0.16850000
   228  H          0.26450000       0.72060000       0.66850000
   229  H          0.23550000       0.22060000       0.66850000
   230  H          0.26450000       0.77940000       0.16850000
   231  H          0.76450000       0.72060000       0.83150000
   232  H          0.73550000       0.27940000       0.33150000
   233  C          0.44645100       0.59552000       0.19866700
   234  C          0.05354900       0.40448000       0.69866700
   235  C          0.55354900       0.09552000       0.30133300
   236  C          0.94645100       0.90448000       0.80133300
   237  C          0.55354900       0.40448000       0.80133300
   238  C          0.94645100       0.59552000       0.30133300
   239  C          0.44645100       0.90448000       0.69866700
   240  C          0.05354900       0.09552000       0.19866700
   241  H          0.46460000       0.48890000       0.20710000
   242  H          0.03540000       0.51110000       0.70710000
   243  H          0.53540000      -0.01110000       0.29290000
   244  H          0.96460000       0.01110000       0.79290000
   245  H          0.53540000       0.51110000       0.79290000
   246  H          0.96460000       0.48890000       0.29290000
   247  H          0.46460000       0.01110000       0.70710000
   248  H          0.03540000      -0.01110000       0.20710000
   249  H          0.40650000       0.59490000       0.16620000
   250  H          0.09350000       0.40510000       0.66620000
   251  H          0.59350000       0.09490000       0.33380000
   252  H          0.90650000       0.90510000       0.83380000
   253  H          0.59350000       0.40510000       0.83380000
   254  H          0.90650000       0.59490000       0.33380000
   255  H          0.40650000       0.90510000       0.66620000
   256  H          0.09350000       0.09490000       0.16620000
   257  H          0.41740000       0.63970000       0.23210000
   258  H          0.08260000       0.36030000       0.73210000
   259  H          0.58260000       0.13970000       0.26790000
   260  H          0.91740000       0.86030000       0.76790000
   261  H          0.58260000       0.36030000       0.76790000
   262  H          0.91740000       0.63970000       0.26790000
   263  H          0.41740000       0.86030000       0.73210000
   264  H          0.08260000       0.13970000       0.23210000
   265  C          0.71898150       0.97413000       0.13898800
   266  C          0.78101850       0.02587000       0.63898800
   267  C          0.28101850       0.47413000       0.36101200
   268  C          0.21898150       0.52587000       0.86101200
   269  C          0.28101850       0.02587000       0.86101200
   270  C          0.21898150       0.97413000       0.36101200
   271  C          0.71898150       0.52587000       0.63898800
   272  C          0.78101850       0.47413000       0.13898800
   273  H          0.72100000       0.06720000       0.16300000
   274  H          0.77900000       0.93280000       0.66300000
   275  H          0.27900000       0.56720000       0.33700000
   276  H          0.22100000       0.43280000       0.83700000
   277  H          0.27900000       0.93280000       0.83700000
   278  H          0.22100000       0.06720000       0.33700000
   279  H          0.72100000       0.43280000       0.66300000
   280  H          0.77900000       0.56720000       0.16300000
   281  H          0.70950000       0.00440000       0.09910000
   282  H          0.79050000      -0.00440000       0.59910000
   283  H          0.29050000       0.50440000       0.40090000
   284  H          0.20950000       0.49560000       0.90090000
   285  H          0.29050000      -0.00440000       0.90090000
   286  H          0.20950000       0.00440000       0.40090000
   287  H          0.70950000       0.49560000       0.59910000
   288  H          0.79050000       0.50440000       0.09910000
   289  H          0.77390000       0.91790000       0.14210000
   290  H          0.72610000       0.08210000       0.64210000
   291  H          0.22610000       0.41790000       0.35790000
   292  H          0.27390000       0.58210000       0.85790000
   293  H          0.22610000       0.08210000       0.85790000
   294  H          0.27390000       0.91790000       0.35790000
   295  H          0.77390000       0.58210000       0.64210000
   296  H          0.72610000       0.41790000       0.14210000
