data_OJUJOU02
_symmetry_space_group_name_H-M    'P1'
_symmetry_Int_Tables_number       1
loop_
_symmetry_equiv_pos_site_id
_symmetry_equiv_pos_as_xyz
1 x,y,z
_cell_length_a                   7.892311
_cell_length_b                   18.9083
_cell_length_c                   15.9692
_cell_angle_alpha                90.0
_cell_angle_beta                 95.8385
_cell_angle_gamma                90.0
loop_
_atom_site_label
_atom_site_type_symbol
_atom_site_fract_x
_atom_site_fract_y
_atom_site_fract_z
     1  C         -0.00092130       0.20863600       0.45031700
     2  C          0.00092130       0.70863600       0.04968300
     3  C          0.00092130       0.79136400       0.54968300
     4  C         -0.00092130       0.29136400       0.95031700
     5  C          0.93739870       0.24040600       0.51893700
     6  C          0.06260130       0.74040600       0.98106300
     7  C          0.06260130       0.75959400       0.48106300
     8  C          0.93739870       0.25959400       0.01893700
     9  H          0.91646200       0.21413600       0.56754000
    10  H          0.08353800       0.71413600       0.93246000
    11  H          0.08353800       0.78586400       0.43246000
    12  H          0.91646200       0.28586400       0.06754000
    13  C          0.90764870       0.31244600       0.51325700
    14  C          0.09235130       0.81244600       0.98674300
    15  C          0.09235130       0.68755400       0.48674300
    16  C          0.90764870       0.18755400       0.01325700
    17  C          0.93936870       0.35261600       0.44446700
    18  C          0.06063130       0.85261600       0.05553300
    19  C          0.06063130       0.64738400       0.55553300
    20  C          0.93936870       0.14738400       0.94446700
    21  H          0.91818400       0.40206700       0.44241000
    22  H          0.08181600       0.90206700       0.05759000
    23  H          0.08181600       0.59793300       0.55759000
    24  H          0.91818400       0.09793300       0.94241000
    25  C          0.00332140       0.31753600       0.37880700
    26  C         -0.00332140       0.81753600       0.12119300
    27  C         -0.00332140       0.68246400       0.62119300
    28  C          0.00332140       0.18246400       0.87880700
    29  C          0.03433140       0.24559600       0.37971700
    30  C          0.96566860       0.74559600       0.12028300
    31  C          0.96566860       0.75440400       0.62028300
    32  C          0.03433140       0.25440400       0.87971700
    33  H          0.07810000       0.22256500       0.33361500
    34  H          0.92190000       0.72256500       0.16638500
    35  H          0.92190000       0.77743500       0.66638500
    36  H          0.07810000       0.27743500       0.83361500
    37  N          0.02378120       0.13144500       0.45112700
    38  N          0.97621880       0.63144500       0.04887300
    39  N          0.97621880       0.86855500       0.54887300
    40  N          0.02378120       0.36855500       0.95112700
    41  N          0.83583870       0.34831600       0.58351700
    42  N          0.16416130       0.84831600       0.91648300
    43  N          0.16416130       0.65168400       0.41648300
    44  N          0.83583870       0.15168400       0.08351700
    45  N          0.03332150       0.35791600       0.30293700
    46  N          0.96667850       0.85791600       0.19706300
    47  N          0.96667850       0.64208400       0.69706300
    48  N          0.03332150       0.14208400       0.80293700
    49  O          0.08191130       0.10453500       0.39003700
    50  O          0.91808870       0.60453500       0.10996300
    51  O          0.91808870       0.89546500       0.60996300
    52  O          0.08191130       0.39546500       0.89003700
    53  O         -0.01650120       0.09846500       0.51155700
    54  O          0.01650120       0.59846500       0.98844300
    55  O          0.01650120       0.90153500       0.48844300
    56  O         -0.01650120       0.40153500       0.01155700
    57  O          0.82883850       0.31506600       0.64857600
    58  O          0.17116150       0.81506600       0.85142400
    59  O          0.17116150       0.68493400       0.35142400
    60  O          0.82883850       0.18493400       0.14857600
    61  O          0.78831860       0.40943600       0.57309700
    62  O          0.21168140       0.90943600       0.92690300
    63  O          0.21168140       0.59056400       0.42690300
    64  O          0.78831860       0.09056400       0.07309700
    65  O          0.00441150       0.42129500       0.30277700
    66  O         -0.00441150       0.92129500       0.19722300
    67  O         -0.00441150       0.57870500       0.69722300
    68  O          0.00441150       0.07870500       0.80277700
    69  O          0.08289190       0.32556600       0.24395700
    70  O          0.91710810       0.82556600       0.25604300
    71  O          0.91710810       0.67443400       0.75604300
    72  O          0.08289190       0.17443400       0.74395700
    73  C          0.44232120       0.27423500       0.49458600
    74  C          0.55767880       0.77423500       0.00541400
    75  C          0.55767880       0.72576500       0.50541400
    76  C          0.44232120       0.22576500      -0.00541400
    77  C          0.36591130       0.32237500       0.54635600
    78  C          0.63408870       0.82237500       0.95364400
    79  C          0.63408870       0.67762500       0.45364400
    80  C          0.36591130       0.17762500       0.04635600
    81  C          0.30786140       0.30255600       0.62516700
    82  C          0.69213860       0.80255600       0.87483300
    83  C          0.69213860       0.69744400       0.37483300
    84  C          0.30786140       0.19744400       0.12516700
    85  H          0.32178700       0.25518200       0.64447200
    86  H          0.67821300       0.75518200       0.85552800
    87  H          0.67821300       0.74481800       0.35552800
    88  H          0.32178700       0.24481800       0.14447200
    89  C          0.23292160       0.35093700       0.67267800
    90  C          0.76707840       0.85093700       0.82732200
    91  C          0.76707840       0.64906300       0.32732200
    92  C          0.23292160       0.14906300       0.17267800
    93  H          0.19504600       0.33662100       0.72466700
    94  H          0.80495400       0.83662100       0.77533300
    95  H          0.80495400       0.66337900       0.27533300
    96  H          0.19504600       0.16337900       0.22466700
    97  C          0.21015170       0.42218700       0.64630800
    98  C          0.78984830       0.92218700       0.85369200
    99  C          0.78984830       0.57781300       0.35369200
   100  C          0.21015170       0.07781300       0.14630800
   101  H          0.15661600       0.45496500       0.68020700
   102  H          0.84338400       0.95496500       0.81979300
   103  H          0.84338400       0.54503500       0.31979300
   104  H          0.15661600       0.04503500       0.18020700
   105  C          0.26502150       0.44345600       0.57250800
   106  C          0.73497850       0.94345600       0.92749200
   107  C          0.73497850       0.55654400       0.42749200
   108  C          0.26502150       0.05654400       0.07250800
   109  H          0.25038500       0.49137500       0.55539300
   110  H          0.74961500       0.99137500       0.94460700
   111  H          0.74961500       0.50862500       0.44460700
   112  H          0.25038500       0.00862500       0.05539300
   113  C          0.34457130       0.39482500       0.52003700
   114  C          0.65542870       0.89482500       0.97996300
   115  C          0.65542870       0.60517500       0.47996300
   116  C          0.34457130       0.10517500       0.02003700
   117  C          0.39979140       0.41653500       0.44397700
   118  C          0.60020860       0.91653500       0.05602300
   119  C          0.60020860       0.58346500       0.55602300
   120  C          0.39979140       0.08346500       0.94397700
   121  H          0.38585300       0.46454400       0.42712200
   122  H          0.61414700       0.96454400       0.07287800
   123  H          0.61414700       0.53545600       0.57287800
   124  H          0.38585300       0.03545600       0.92712200
   125  C          0.47506130       0.36913500       0.39217600
   126  C          0.52493870       0.86913500       0.10782400
   127  C          0.52493870       0.63086500       0.60782400
   128  C          0.47506130       0.13086500       0.89217600
   129  C          0.53183150       0.39094600       0.31399700
   130  C          0.46816850       0.89094600       0.18600300
   131  C          0.46816850       0.60905400       0.68600300
   132  C          0.53183150       0.10905400       0.81399700
   133  H          0.52150900       0.43918500       0.29764400
   134  H          0.47849100       0.93918500       0.20235600
   135  H          0.47849100       0.56081500       0.70235600
   136  H          0.52150900       0.06081500       0.79764400
   137  C          0.60018160       0.34396700       0.26276700
   138  C          0.39981840       0.84396700       0.23723300
   139  C          0.39981840       0.65603300       0.73723300
   140  C          0.60018160       0.15603300       0.76276700
   141  H          0.63651800       0.35933100       0.21084000
   142  H          0.36348200       0.85933100       0.28916000
   143  H          0.36348200       0.64066900       0.78916000
   144  H          0.63651800       0.14066900       0.71084000
   145  C          0.61745150       0.27174600       0.28673700
   146  C          0.38254850       0.77174600       0.21326300
   147  C          0.38254850       0.72825400       0.71326300
   148  C          0.61745150       0.22825400       0.78673700
   149  H          0.66366800       0.23896600       0.25010900
   150  H          0.33633200       0.73896600       0.24989100
   151  H          0.33633200       0.76103400       0.74989100
   152  H          0.66366800       0.26103400       0.75010900
   153  C          0.56872140       0.24890600       0.36139700
   154  C          0.43127860       0.74890600       0.13860300
   155  C          0.43127860       0.75109400       0.63860300
   156  C          0.56872140       0.25109400       0.86139700
   157  H          0.58328500       0.20053400       0.37653300
   158  H          0.41671500       0.70053400       0.12346700
   159  H          0.41671500       0.79946600       0.62346700
   160  H          0.58328500       0.29946600       0.87653300
   161  C          0.49600120       0.29636500       0.41744600
   162  C          0.50399880       0.79636500       0.08255400
   163  C          0.50399880       0.70363500       0.58255400
   164  C          0.49600120       0.20363500       0.91744600
   165  C          0.46734130       0.19768500       0.52177700
   166  C          0.53265870       0.69768500       0.97822300
   167  C          0.53265870       0.80231500       0.47822300
   168  C          0.46734130       0.30231500       0.02177700
   169  O          0.33455100       0.16233400       0.52977600
   170  O          0.66544900       0.66233400       0.97022400
   171  O          0.66544900       0.83766600       0.47022400
   172  O          0.33455100       0.33766600       0.02977600
   173  O          0.61486100       0.17464400       0.53472700
   174  O          0.38513900       0.67464400       0.96527300
   175  O          0.38513900       0.82535600       0.46527300
   176  O          0.61486100       0.32535600       0.03472700
   177  C          0.52570140       0.00618500       0.61869600
   178  C          0.47429860       0.50618500       0.88130400
   179  C          0.47429860      -0.00618500       0.38130400
   180  C          0.52570140       0.49381500       0.11869600
   181  C          0.53422150       0.94379400       0.66726700
   182  C          0.46577850       0.44379400       0.83273300
   183  C          0.46577850       0.05620600       0.33273300
   184  C          0.53422150       0.55620600       0.16726700
   185  H          0.63124300       0.91392700       0.66860600
   186  H          0.36875700       0.41392700       0.83139400
   187  H          0.36875700       0.08607300       0.33139400
   188  H          0.63124300       0.58607300       0.16860600
   189  C          0.40196170       0.92655400       0.71240800
   190  C          0.59803830       0.42655400       0.78759200
   191  C          0.59803830       0.07344600       0.28759200
   192  C          0.40196170       0.57344600       0.21240800
   193  H          0.40927400       0.88535100       0.74662200
   194  H          0.59072600       0.38535100       0.75337800
   195  H          0.59072600       0.11464900       0.25337800
   196  H          0.40927400       0.61464900       0.24662200
   197  C          0.25589160       0.96887400       0.70882700
   198  C          0.74410840       0.46887400       0.79117300
   199  C          0.74410840       0.03112600       0.29117300
   200  C          0.25589160       0.53112600       0.20882700
   201  H          0.16386800       0.95708000       0.74020600
   202  H          0.83613200       0.45708000       0.75979400
   203  H          0.83613200       0.04292000       0.25979400
   204  H          0.16386800       0.54292000       0.24020600
   205  C          0.24960140       0.02757600       0.65894700
   206  C          0.75039860       0.52757600       0.84105300
   207  C          0.75039860       0.97242400       0.34105300
   208  C          0.24960140       0.47242400       0.15894700
   209  H          0.15083300       0.05659400       0.65463700
   210  H          0.84916700       0.55659400       0.84536300
   211  H          0.84916700       0.94340600       0.34536300
   212  H          0.15083300       0.44340600       0.15463700
   213  N          0.38231110       0.04507500       0.61541500
   214  N          0.61768890       0.54507500       0.88458500
   215  N          0.61768890       0.95492500       0.38458500
   216  N          0.38231110       0.45492500       0.11541500
   217  N          0.65323130       0.02921500       0.57645600
   218  N          0.34676870       0.52921500       0.92354400
   219  N          0.34676870       0.97078500       0.42354400
   220  N          0.65323130       0.47078500       0.07645600
   221  H          0.37420000       0.08739000       0.58171000
   222  H          0.62580000       0.58739000       0.91829000
   223  H          0.62580000       0.91261000       0.41829000
   224  H          0.37420000       0.41261000       0.08171000
   225  H          0.65020000       0.07351000       0.55681000
   226  H          0.34980000       0.57351000       0.94319000
   227  H          0.34980000       0.92649000       0.44319000
   228  H          0.65020000       0.42649000       0.05681000
   229  H          0.74620000       0.00459000       0.57981000
   230  H          0.25380000       0.50459000       0.92019000
   231  H          0.25380000      -0.00459000       0.42019000
   232  H          0.74620000       0.49541000       0.07981000
