data_OJUJOU03
_symmetry_space_group_name_H-M    'P1'
_symmetry_Int_Tables_number       1
loop_
_symmetry_equiv_pos_site_id
_symmetry_equiv_pos_as_xyz
1 x,y,z
_cell_length_a                   7.08345
_cell_length_b                   12.82719
_cell_length_c                   13.85559
_cell_angle_alpha                77.1962
_cell_angle_beta                 85.9462
_cell_angle_gamma                81.2812
loop_
_atom_site_label
_atom_site_type_symbol
_atom_site_fract_x
_atom_site_fract_y
_atom_site_fract_z
     1  C          0.72773170       0.41874100       0.26059100
     2  C          0.27226830       0.58125900       0.73940900
     3  C          0.68581180       0.41523110       0.36008100
     4  C          0.31418820       0.58476890       0.63991900
     5  H          0.64086000       0.47876000       0.38407800
     6  H          0.35914000       0.52124000       0.61592200
     7  C          0.71253180       0.31473110       0.42288900
     8  C          0.28746820       0.68526890       0.57711100
     9  C          0.78206170       0.22115100       0.39120900
    10  C          0.21793830       0.77884900       0.60879100
    11  H          0.80057800       0.15306700       0.43606400
    12  H          0.19942200       0.84693300       0.56393600
    13  C          0.82334170       0.23140100       0.29109900
    14  C          0.17665830       0.76859900       0.70890100
    15  C          0.79480170       0.32870100       0.22310100
    16  C          0.20519830       0.67129900       0.77689900
    17  H          0.82018200       0.33311100       0.15417500
    18  H          0.17981800       0.66688900       0.84582500
    19  N          0.69805170       0.52386100       0.19020100
    20  N          0.30194830       0.47613900       0.80979900
    21  N          0.90376160       0.13385900       0.25492800
    22  N          0.09623840       0.86614100       0.74507200
    23  N          0.66539170       0.30571100       0.52936900
    24  N          0.33460830       0.69428900       0.47063100
    25  O          0.68616170       0.52340900       0.10311800
    26  O          0.31383830       0.47659100       0.89688200
    27  O          0.68702000       0.60486900       0.22417110
    28  O          0.31298000       0.39513100       0.77582890
    29  O          0.63222000       0.38929100       0.55976900
    30  O          0.36778000       0.61070900       0.44023100
    31  O          0.66326180       0.21543100       0.58114800
    32  O          0.33673820       0.78456900       0.41885200
    33  O          0.91972180       0.04780800       0.31456800
    34  O          0.08027820       0.95219200       0.68543200
    35  O          0.95159170       0.14443900       0.16738800
    36  O          0.04840830       0.85556100       0.83261200
    37  C          0.30169170       0.29957100       0.25701100
    38  C          0.69830830       0.70042900       0.74298900
    39  C          0.26329190       0.27583120       0.35986110
    40  C          0.73670810       0.72416880       0.64013890
    41  C          0.19332000       0.35605160       0.41527110
    42  C          0.80668000       0.64394840       0.58472890
    43  H          0.17352400       0.42993600       0.38242400
    44  H          0.82647600       0.57006400       0.61757600
    45  C          0.15423000       0.32822000       0.51481130
    46  C          0.84577000       0.67178000       0.48518870
    47  H          0.11008400       0.38276900       0.55073800
    48  H          0.88991600       0.61723100       0.44926200
    49  C          0.17923000       0.21803000       0.56503170
    50  C          0.82077000       0.78197000       0.43496830
    51  H          0.14852400       0.19915000       0.63397700
    52  H          0.85147600       0.80085000       0.36602300
    53  C          0.24573000       0.14072000       0.51565190
    54  C          0.75427000       0.85928000       0.48434810
    55  H          0.26197800       0.06756700       0.55070100
    56  H          0.73802200       0.93243300       0.44929900
    57  C          0.29322000       0.16439160       0.41212140
    58  C          0.70678000       0.83560840       0.58787860
    59  C          0.36603000       0.08453140       0.36073190
    60  C          0.63397000       0.91546860       0.63926810
    61  H          0.38377600       0.01132400       0.39558500
    62  H          0.61622400       0.98867600       0.60441500
    63  C          0.41332000       0.10828120       0.26070180
    64  C          0.58668000       0.89171880       0.73929820
    65  C          0.49573000       0.02684150       0.20713000
    66  C          0.50427000       0.97315850       0.79287000
    67  H          0.51891400       0.95367600       0.24172300
    68  H          0.48108600       0.04632400       0.75827700
    69  C          0.54033000       0.05162000       0.10983000
    70  C          0.45967000       0.94838000       0.89017000
    71  H          0.59295400      -0.00398400       0.07636700
    72  H          0.40704600       0.00398400       0.92363300
    73  C          0.50942000       0.15917180       0.05722000
    74  C          0.49058000       0.84082820       0.94278000
    75  H          0.54320400       0.17586100       0.98847300
    76  H          0.45679600       0.82413900       0.01152700
    77  C          0.43182000       0.24006140       0.10320140
    78  C          0.56818000       0.75993860       0.89679860
    79  H          0.41241400       0.31229300       0.06602300
    80  H          0.58758600       0.68770700       0.93397700
    81  C          0.37907190       0.21819110       0.20619130
    82  C          0.62092810       0.78180890       0.79380870
    83  C          0.25090170       0.41377100       0.19804900
    84  C          0.74909830       0.58622900       0.80195100
    85  O          0.32338130       0.48686700       0.22379700
    86  O          0.67661870       0.51313300       0.77620300
    87  O          0.13817130       0.42788700       0.12976700
    88  O          0.86182870       0.57211300       0.87023300
    89  C          0.05663170       0.71733100       0.07666900
    90  C          0.94336830       0.28266900       0.92333100
    91  C          0.96794810       0.82576100       0.05729100
    92  C          0.03205190       0.17423900       0.94270900
    93  H          0.88100000       0.85127000       0.00530300
    94  H          0.11900000       0.14873000      -0.00530300
    95  C          0.00832000       0.89362110       0.11393100
    96  C         -0.00832000       0.10637890       0.88606900
    97  H          0.94810000       0.96646100       0.10124600
    98  H          0.05190000       0.03353900       0.89875400
    99  C          0.13732000       0.85729110       0.19065110
   100  C          0.86268000       0.14270890       0.80934890
   101  H          0.16616300       0.90458800       0.22976300
   102  H          0.83383700       0.09541200       0.77023700
   103  C          0.21962000       0.75271110       0.20722100
   104  C          0.78038000       0.24728890       0.79277900
   105  H          0.30711900       0.72627200       0.25883400
   106  H          0.69288100       0.27372800       0.74116600
   107  N          0.17880160       0.68525800       0.15124800
   108  N          0.82119840       0.31474200       0.84875200
   109  N          0.03090170       0.64498900       0.02499800
   110  N          0.96909830       0.35501100       0.97500200
   111  H          0.23630000       0.61031500       0.16791300
   112  H          0.76370000       0.38968500       0.83208700
   113  H          0.07530000       0.57641500       0.04921300
   114  H          0.92470000       0.42358500       0.95078700
   115  H          0.94470000       0.66201400       0.98118700
   116  H          0.05530000       0.33798600       0.01881300
