data_OJUJOU
_symmetry_space_group_name_H-M    'P1'
_symmetry_Int_Tables_number       1
loop_
_symmetry_equiv_pos_site_id
_symmetry_equiv_pos_as_xyz
1 x,y,z
_cell_length_a                   6.885011
_cell_length_b                   13.9362
_cell_length_c                   24.9193
_cell_angle_alpha                90.0
_cell_angle_beta                 102.6005
_cell_angle_gamma                90.0
loop_
_atom_site_label
_atom_site_type_symbol
_atom_site_fract_x
_atom_site_fract_y
_atom_site_fract_z
     1  C          0.86057000       0.33553000       0.68562000
     2  C          0.13943000       0.83553000       0.81438000
     3  C          0.13943000       0.66447000       0.31438000
     4  C          0.86057000       0.16447000       0.18562000
     5  C          0.86327000       0.31864000       0.74012000
     6  C          0.13673000       0.81864000       0.75988000
     7  C          0.13673000       0.68136000       0.25988000
     8  C          0.86327000       0.18136000       0.24012000
     9  H          0.88254200       0.36894200       0.76647300
    10  H          0.11745800       0.86894200       0.73352700
    11  H          0.11745800       0.63105800       0.23352700
    12  H          0.88254200       0.13105800       0.26647300
    13  C          0.83637000       0.22484000       0.75464190
    14  C          0.16363000       0.72484000       0.74535810
    15  C          0.16363000       0.77516000       0.24535810
    16  C          0.83637000       0.27516000       0.25464190
    17  C          0.81037000       0.15044000       0.71802000
    18  C          0.18963000       0.65044000       0.78198000
    19  C          0.18963000       0.84956000       0.28198000
    20  C          0.81037000       0.34956000       0.21802000
    21  H          0.79396500       0.08627300       0.72920900
    22  H          0.20603500       0.58627300       0.77079100
    23  H          0.20603500       0.91372700       0.27079100
    24  H          0.79396500       0.41372700       0.22920900
    25  C          0.80887000       0.17313000       0.66352000
    26  C          0.19113000       0.67313000       0.83648000
    27  C          0.19113000       0.82687000       0.33648000
    28  C          0.80887000       0.32687000       0.16352000
    29  C          0.83397000       0.26523000       0.64622000
    30  C          0.16603000       0.76523000       0.85378000
    31  C          0.16603000       0.73477000       0.35378000
    32  C          0.83397000       0.23477000       0.14622000
    33  H          0.83286500       0.27932500       0.60884900
    34  H          0.16713500       0.77932500       0.89115100
    35  H          0.16713500       0.72067500       0.39115100
    36  H          0.83286500       0.22067500       0.10884900
    37  N          0.88656000       0.43503000       0.66880170
    38  N          0.11344000       0.93503000       0.83119830
    39  N          0.11344000       0.56497000       0.33119830
    40  N          0.88656000       0.06497000       0.16880170
    41  N          0.83246000       0.20373000       0.81260180
    42  N          0.16754000       0.70373000       0.68739820
    43  N          0.16754000       0.79627000       0.18739820
    44  N          0.83246000       0.29627000       0.31260180
    45  N          0.77806000       0.09483000       0.62273190
    46  N          0.22194000       0.59483000       0.87726810
    47  N          0.22194000       0.90517000       0.37726810
    48  N          0.77806000       0.40517000       0.12273190
    49  O          0.93006000       0.44763000       0.62447150
    50  O          0.06994000       0.94763000       0.87552850
    51  O          0.06994000       0.55237000       0.37552850
    52  O          0.93006000       0.05237000       0.12447150
    53  O          0.86336000       0.49943000       0.70006160
    54  O          0.13664000      -0.00057000       0.79993840
    55  O          0.13664000       0.50057000       0.29993840
    56  O          0.86336000       0.00057000       0.20006160
    57  O          0.88367000       0.26883000       0.84610160
    58  O          0.11633000       0.76883000       0.65389840
    59  O          0.11633000       0.73117000       0.15389840
    60  O          0.88367000       0.23117000       0.34610160
    61  O          0.78027000       0.12403000       0.82332180
    62  O          0.21973000       0.62403000       0.67667820
    63  O          0.21973000       0.87597000       0.17667820
    64  O          0.78027000       0.37597000       0.32332180
    65  O          0.76347000       0.01293000       0.63941190
    66  O          0.23653000       0.51293000       0.86058810
    67  O          0.23653000       0.98707000       0.36058810
    68  O          0.76347000       0.48707000       0.13941190
    69  O          0.76866000       0.11563000       0.57494170
    70  O          0.23134000       0.61563000       0.92505830
    71  O          0.23134000       0.88437000       0.42505830
    72  O          0.76866000       0.38437000       0.07494170
    73  C          0.31876000       0.27433000       0.62350180
    74  C          0.68124000       0.77433000       0.87649820
    75  C          0.68124000       0.72567000       0.37649820
    76  C          0.31876000       0.22567000       0.12350180
    77  C          0.34286000       0.29463000       0.67978180
    78  C          0.65714000       0.79463000       0.82021820
    79  C          0.65714000       0.70537000       0.32021820
    80  C          0.34286000       0.20537000       0.17978180
    81  C          0.37867000       0.38913000       0.70222190
    82  C          0.62133000       0.88913000       0.79777810
    83  C          0.62133000       0.61087000       0.29777810
    84  C          0.37867000       0.11087000       0.20222190
    85  H          0.38707500       0.44152500       0.67850400
    86  H          0.61292500       0.94152500       0.82149600
    87  H          0.61292500       0.55847500       0.32149600
    88  H          0.38707500       0.05847500       0.17850400
    89  C          0.40057000       0.40474000       0.75692000
    90  C          0.59943000       0.90474000       0.74308000
    91  C          0.59943000       0.59526000       0.24308000
    92  C          0.40057000       0.09526000       0.25692000
    93  H          0.42331400       0.46815900       0.77074500
    94  H          0.57668600       0.96815900       0.72925500
    95  H          0.57668600       0.53184100       0.22925500
    96  H          0.42331400       0.03184100       0.27074500
    97  C          0.39048000       0.32944000       0.79382000
    98  C          0.60952000       0.82944000       0.70618000
    99  C          0.60952000       0.67056000       0.20618000
   100  C          0.39048000       0.17056000       0.29382000
   101  H          0.40818200       0.34215600       0.83201700
   102  H          0.59181800       0.84215600       0.66798300
   103  H          0.59181800       0.65784400       0.16798300
   104  H          0.40818200       0.15784400       0.33201700
   105  C          0.35507000       0.23844000       0.77461190
   106  C          0.64493000       0.73844000       0.72538810
   107  C          0.64493000       0.76156000       0.22538810
   108  C          0.35507000       0.26156000       0.27461190
   109  H          0.34647400       0.18789000       0.79958000
   110  H          0.65352600       0.68789000       0.70042000
   111  H          0.65352600       0.81211000       0.20042000
   112  H          0.34647400       0.31211000       0.29958000
   113  C          0.33066000       0.21793000       0.71782000
   114  C          0.66934000       0.71793000       0.78218000
   115  C          0.66934000       0.78207000       0.28218000
   116  C          0.33066000       0.28207000       0.21782000
   117  C          0.29347000       0.12483000       0.69792000
   118  C          0.70653000       0.62483000       0.80208000
   119  C          0.70653000       0.87517000       0.30208000
   120  C          0.29347000       0.37517000       0.19792000
   121  H          0.28438700       0.07440400       0.72287700
   122  H          0.71561300       0.57440400       0.77712300
   123  H          0.71561300       0.92559600       0.27712300
   124  H          0.28438700       0.42559600       0.22287700
   125  C          0.26917000       0.10383000       0.64222000
   126  C          0.73083000       0.60383000       0.85778000
   127  C          0.73083000       0.89617000       0.35778000
   128  C          0.26917000       0.39617000       0.14222000
   129  C          0.23308000       0.00824000       0.62222000
   130  C          0.76692000       0.50824000       0.87778000
   131  C          0.76692000      -0.00824000       0.37778000
   132  C          0.23308000       0.49176000       0.12222000
   133  H          0.22522200       0.95749800       0.64711300
   134  H          0.77477800       0.45749800       0.85288700
   135  H          0.77477800       0.04250200       0.35288700
   136  H          0.22522200       0.54250200       0.14711300
   137  C          0.20968000       0.98886000       0.56793000
   138  C          0.79032000       0.48886000       0.93207000
   139  C          0.79032000       0.01114000       0.43207000
   140  C          0.20968000       0.51114000       0.06793000
   141  H          0.18519000       0.92493600       0.55512900
   142  H          0.81481000       0.42493600       0.94487100
   143  H          0.81481000       0.07506400       0.44487100
   144  H          0.18519000       0.57506400       0.05512900
   145  C          0.22128000       0.06284000       0.53042000
   146  C          0.77872000       0.56284000       0.96958000
   147  C          0.77872000       0.93716000       0.46958000
   148  C          0.22128000       0.43716000       0.03042000
   149  H          0.20647600       0.04789800       0.49252800
   150  H          0.79352400       0.54789800       0.00747200
   151  H          0.79352400       0.95210200       0.50747200
   152  H          0.20647600       0.45210200       0.99252800
   153  C          0.25318000       0.15544000       0.54742000
   154  C          0.74682000       0.65544000       0.95258000
   155  C          0.74682000       0.84456000       0.45258000
   156  C          0.25318000       0.34456000       0.04742000
   157  H          0.25748900       0.20437000       0.52120000
   158  H          0.74251100       0.70437000       0.97880000
   159  H          0.74251100       0.79563000       0.47880000
   160  H          0.25748900       0.29563000       0.02120000
   161  C          0.28017000       0.17993000       0.60422000
   162  C          0.71983000       0.67993000       0.89578000
   163  C          0.71983000       0.82007000       0.39578000
   164  C          0.28017000       0.32007000       0.10422000
   165  C          0.33507000       0.35563000       0.58400190
   166  C          0.66493000       0.85563000       0.91599810
   167  C          0.66493000       0.64437000       0.41599810
   168  C          0.33507000       0.14437000       0.08400190
   169  O          0.49595000       0.40153000       0.59347150
   170  O          0.50405000       0.90153000       0.90652850
   171  O          0.50405000       0.59847000       0.40652850
   172  O          0.49595000       0.09847000       0.09347150
   173  O          0.19145000       0.37053000       0.54493140
   174  O          0.80855000       0.87053000       0.95506860
   175  O          0.80855000       0.62947000       0.45506860
   176  O          0.19145000       0.12947000       0.04493140
   177  C          0.34108000       0.62414000       0.53222000
   178  C          0.65892000       0.12414000       0.96778000
   179  C          0.65892000       0.37586000       0.46778000
   180  C          0.34108000       0.87586000       0.03222000
   181  C          0.33128000       0.72504000       0.52472000
   182  C          0.66872000       0.22504000       0.97528000
   183  C          0.66872000       0.27496000       0.47528000
   184  C          0.33128000       0.77496000       0.02472000
   185  H          0.21293900       0.75420100       0.50456300
   186  H          0.78706100       0.25420100      -0.00456300
   187  H          0.78706100       0.24579900       0.49543700
   188  H          0.21293900       0.74579900       0.00456300
   189  C          0.49249000       0.77914000       0.54642000
   190  C          0.50751000       0.27914000       0.95358000
   191  C          0.50751000       0.22086000       0.45358000
   192  C          0.49249000       0.72086000       0.04642000
   193  H          0.48514000       0.84674900       0.54171000
   194  H          0.51486000       0.34674900       0.95829000
   195  H          0.51486000       0.15325100       0.45829000
   196  H          0.48514000       0.65325100       0.04171000
   197  C          0.66798000       0.73834000       0.57552000
   198  C          0.33202000       0.23834000       0.92448000
   199  C          0.33202000       0.26166000       0.42448000
   200  C          0.66798000       0.76166000       0.07552000
   201  H          0.78070900       0.77689300       0.59017300
   202  H          0.21929100       0.27689300       0.90982700
   203  H          0.21929100       0.22310700       0.40982700
   204  H          0.78070900       0.72310700       0.09017300
   205  C          0.67378000       0.64134000       0.58242000
   206  C          0.32622000       0.14134000       0.91758000
   207  C          0.32622000       0.35866000       0.41758000
   208  C          0.67378000       0.85866000       0.08242000
   209  H          0.79262400       0.61152400       0.60175500
   210  H          0.20737600       0.11152400       0.89824500
   211  H          0.20737600       0.38847600       0.39824500
   212  H          0.79262400       0.88847600       0.10175500
   213  N          0.51146000       0.58683000       0.56182170
   214  N          0.48854000       0.08683000       0.93817830
   215  N          0.48854000       0.41317000       0.43817830
   216  N          0.51146000       0.91317000       0.06182170
   217  N          0.19308000       0.56564000       0.51212000
   218  N          0.80692000       0.06564000       0.98788000
   219  N          0.80692000       0.43436000       0.48788000
   220  N          0.19308000       0.93436000       0.01212000
   221  H          0.51290000       0.51550000       0.57330000
   222  H          0.48710000       0.01550000       0.92670000
   223  H          0.48710000       0.48450000       0.42670000
   224  H          0.51290000       0.98450000       0.07330000
   225  H          0.18212000       0.49960000       0.52230000
   226  H          0.81788000      -0.00040000       0.97770000
   227  H          0.81788000       0.50040000       0.47770000
   228  H          0.18212000       0.00040000       0.02230000
   229  H          0.07990000       0.59140000       0.49020000
   230  H          0.92010000       0.09140000       0.00980000
   231  H          0.92010000       0.40860000       0.50980000
   232  H          0.07990000       0.90860000       0.99020000
