data_OLOVET01
_symmetry_space_group_name_H-M    'P1'
_symmetry_Int_Tables_number       1
loop_
_symmetry_equiv_pos_site_id
_symmetry_equiv_pos_as_xyz
1 x,y,z
_cell_length_a                   6.06796
_cell_length_b                   12.31501
_cell_length_c                   15.65801
_cell_angle_alpha                103.7754
_cell_angle_beta                 98.9204
_cell_angle_gamma                93.5444
loop_
_atom_site_label
_atom_site_type_symbol
_atom_site_fract_x
_atom_site_fract_y
_atom_site_fract_z
     1  N          0.46877000       0.62373000       0.33972000
     2  N          0.53123000       0.37627000       0.66028000
     3  N          0.14257000       0.91834000       0.59023000
     4  N          0.85743000       0.08166000       0.40977000
     5  N          0.16268000       0.32904000       0.26083000
     6  N          0.83732000       0.67096000       0.73917000
     7  O          0.25226000       0.62023000       0.07352000
     8  O          0.74774000       0.37977000       0.92648000
     9  Br         0.25523120       0.07659700       0.75021400
    10  Br         0.74476880       0.92340300       0.24978600
    11  Br         0.42607170       0.17831800       0.17918500
    12  Br         0.57392830       0.82168200       0.82081500
    13  C          0.29378000       0.67884000       0.31713000
    14  C          0.70622000       0.32116000       0.68287000
    15  C          0.20708000       0.68324000       0.23033000
    16  C          0.79292000       0.31676000       0.76967000
    17  H          0.08190000       0.72350000       0.21870000
    18  H          0.91810000       0.27650000       0.78130000
    19  C          0.30899000       0.62685000       0.16123000
    20  C          0.69101000       0.37315000       0.83877000
    21  C          0.48828000       0.56704000       0.18333000
    22  C          0.51172000       0.43296000       0.81667000
    23  H          0.55910000       0.52580000       0.13770000
    24  H          0.44090000       0.47420000       0.86230000
    25  C          0.56238000       0.56764000       0.27113000
    26  C          0.43762000       0.43236000       0.72887000
    27  C          0.19178000       0.73684000       0.39013000
    28  C          0.80822000       0.26316000       0.60987000
    29  C          0.10868000       0.79014000       0.44863000
    30  C          0.89132000       0.20986000       0.55137000
    31  C          0.00318000       0.85754000       0.51663000
    32  C         -0.00318000       0.14246000       0.48337000
    33  C          0.04998000       0.98365000       0.65073000
    34  C          0.95002000       0.01635000       0.34927000
    35  C          0.82331000      -0.00806000       0.64653000
    36  C          0.17669000       0.00806000       0.35347000
    37  H          0.76590000       0.03760000       0.69420000
    38  H          0.23410000       0.96240000       0.30580000
    39  C          0.68651000       0.93175000       0.57134000
    40  C          0.31349000       0.06825000       0.42866000
    41  H          0.52940000       0.93630000       0.56460000
    42  H          0.47060000       0.06370000       0.43540000
    43  C          0.77562000       0.86365000       0.50433000
    44  C          0.22438000       0.13635000       0.49567000
    45  H          0.68150000       0.82190000       0.45080000
    46  H          0.31850000       0.17810000       0.54920000
    47  C          0.75109000       0.50755000       0.29463000
    48  C          0.24891000       0.49245000       0.70537000
    49  C          0.90769000       0.45755000       0.31043000
    50  C          0.09231000       0.54245000       0.68957000
    51  C          0.09849000       0.39954000       0.33113000
    52  C          0.90151000       0.60046000       0.66887000
    53  C          0.34151000       0.27825000       0.27944000
    54  C          0.65849000       0.72175000       0.72056000
    55  C          0.46671000       0.28975000       0.36224000
    56  C          0.53329000       0.71025000       0.63776000
    57  H          0.59620000       0.25120000       0.37040000
    58  H          0.40380000       0.74880000       0.62960000
    59  C          0.39701000       0.35865000       0.43204000
    60  C          0.60299000       0.64135000       0.56796000
    61  H          0.47560000       0.36790000       0.49100000
    62  H          0.52440000       0.63210000       0.50900000
    63  C          0.21109000       0.41545000       0.41673000
    64  C          0.78891000       0.58455000       0.58327000
    65  H          0.16200000       0.46480000       0.46490000
    66  H          0.83800000       0.53520000       0.53510000
    67  C          0.11389000       0.69685000       0.03473000
    68  C          0.88611000       0.30315000       0.96527000
    69  C          0.86851000       0.67515000       0.04173000
    70  C          0.13149000       0.32485000       0.95827000
    71  H          0.82340000       0.59400000       0.02400000
    72  H          0.17660000       0.40600000       0.97600000
    73  H          0.77600000       0.71170000       0.00210000
    74  H          0.22400000       0.28830000      -0.00210000
    75  H          0.84840000       0.70560000       0.10340000
    76  H          0.15160000       0.29440000       0.89660000
    77  C          0.21071100       0.81835000       0.07604000
    78  C          0.78928900       0.18165000       0.92396000
    79  H          0.19460000       0.83950000       0.13890000
    80  H          0.80540000       0.16050000       0.86110000
    81  H          0.13010000       0.86740000       0.04400000
    82  H          0.86990000       0.13260000       0.95600000
    83  H          0.37000000       0.82630000       0.07150000
    84  H          0.63000000       0.17370000       0.92850000
    85  C          0.14171100       0.66116000       0.93717000
    86  C          0.85828900       0.33884000       0.06283000
    87  H          0.30090000       0.67120000       0.93320000
    88  H          0.69910000       0.32880000       0.06680000
    89  H          0.05770000       0.70740000       0.90330000
    90  H          0.94230000       0.29260000       0.09670000
    91  H          0.08430000       0.58190000       0.91220000
    92  H          0.91570000       0.41810000       0.08780000
