data_OLOVET
_symmetry_space_group_name_H-M    'P1'
_symmetry_Int_Tables_number       1
loop_
_symmetry_equiv_pos_site_id
_symmetry_equiv_pos_as_xyz
1 x,y,z
_cell_length_a                   6.08702
_cell_length_b                   19.53787
_cell_length_c                   17.98336
_cell_angle_alpha                90.0
_cell_angle_beta                 92.8342
_cell_angle_gamma                90.0
loop_
_atom_site_label
_atom_site_type_symbol
_atom_site_fract_x
_atom_site_fract_y
_atom_site_fract_z
     1  N          0.52736000       0.28773160       0.73027180
     2  N          0.47264000       0.78773160       0.76972820
     3  N          0.47264000       0.71226840       0.26972820
     4  N          0.52736000       0.21226840       0.23027180
     5  N          0.11185000       0.17053160       0.93771180
     6  N          0.88815000       0.67053160       0.56228820
     7  N          0.88815000       0.82946840       0.06228820
     8  N          0.11185000       0.32946840       0.43771180
     9  N          0.95775000       0.15668150       0.52623180
    10  N          0.04225000       0.65668150       0.97376820
    11  N          0.04225000       0.84331850       0.47376820
    12  N          0.95775000       0.34331850       0.02623180
    13  O          0.60835000       0.49843140       0.73500170
    14  O          0.39165000      -0.00156860       0.76499830
    15  O          0.39165000       0.50156860       0.26499830
    16  O          0.60835000       0.00156860       0.23500170
    17  Br         0.18642800       0.07461300       0.04760300
    18  Br         0.81357200       0.57461300       0.45239700
    19  Br         0.81357200       0.92538700       0.95239700
    20  Br         0.18642800       0.42538700       0.54760300
    21  Br         0.90218800       0.06153200       0.41511300
    22  Br         0.09781200       0.56153200       0.08488700
    23  Br         0.09781200       0.93846800       0.58488700
    24  Br         0.90218800       0.43846800       0.91511300
    25  C          0.38377000       0.32689190       0.76542000
    26  C          0.61623000       0.82689190       0.73458000
    27  C          0.61623000       0.67310810       0.23458000
    28  C          0.38377000       0.17310810       0.26542000
    29  C          0.38957000       0.39814190       0.76832000
    30  C          0.61043000       0.89814190       0.73168000
    31  C          0.61043000       0.60185810       0.23168000
    32  C          0.38957000       0.10185810       0.26832000
    33  H          0.27940000       0.42340000       0.79200000
    34  H          0.72060000       0.92340000       0.70800000
    35  H          0.72060000       0.57660000       0.20800000
    36  H          0.27940000       0.07660000       0.29200000
    37  C          0.56307000       0.43072000       0.73532000
    38  C          0.43693000       0.93072000       0.76468000
    39  C          0.43693000       0.56928000       0.26468000
    40  C          0.56307000       0.06928000       0.23532000
    41  C          0.71637000       0.39093190       0.69972000
    42  C          0.28363000       0.89093190       0.80028000
    43  C          0.28363000       0.60906810       0.30028000
    44  C          0.71637000       0.10906810       0.19972000
    45  H          0.83770000       0.41180000       0.67730000
    46  H          0.16230000       0.91180000       0.82270000
    47  H          0.16230000       0.58820000       0.32270000
    48  H          0.83770000       0.08820000       0.17730000
    49  C          0.68937000       0.32091190       0.69742000
    50  C          0.31063000       0.82091190       0.80258000
    51  C          0.31063000       0.67908810       0.30258000
    52  C          0.68937000       0.17908810       0.19742000
    53  C          0.22517000       0.28895190       0.80652000
    54  C          0.77483000       0.78895190       0.69348000
    55  C          0.77483000       0.71104810       0.19348000
    56  C          0.22517000       0.21104810       0.30652000
    57  C          0.11267000       0.25523190       0.84472000
    58  C          0.88733000       0.75523190       0.65528000
    59  C          0.88733000       0.74476810       0.15528000
    60  C          0.11267000       0.24476810       0.34472000
    61  C         -0.01087000       0.21372190       0.89442000
    62  C          0.01087000       0.71372190       0.60558000
    63  C          0.01087000       0.78627810       0.10558000
    64  C         -0.01087000       0.28627810       0.39442000
    65  C          0.00647000       0.13202000       0.98382000
    66  C         -0.00647000       0.63202000       0.51618000
    67  C         -0.00647000       0.86798000       0.01618000
    68  C          0.00647000       0.36798000       0.48382000
    69  C          0.78183000       0.13162000       0.99102000
    70  C          0.21817000       0.63162000       0.50898000
    71  C          0.21817000       0.86838000       0.00898000
    72  C          0.78183000       0.36838000       0.49102000
    73  H          0.71530000       0.10210000       0.02530000
    74  H          0.28470000       0.60210000       0.47470000
    75  H          0.28470000       0.89790000       0.97470000
    76  H          0.71530000       0.39790000       0.52530000
    77  C          0.65883000       0.17562000       0.94662000
    78  C          0.34117000       0.67562000       0.55338000
    79  C          0.34117000       0.82438000       0.05338000
    80  C          0.65883000       0.32438000       0.44662000
    81  H          0.50350000       0.17700000       0.94930000
    82  H          0.49650000       0.67700000       0.55070000
    83  H          0.49650000       0.82300000       0.05070000
    84  H          0.50350000       0.32300000       0.44930000
    85  C          0.76413000       0.21832000       0.89712000
    86  C          0.23587000       0.71832000       0.60288000
    87  C          0.23587000       0.78168000       0.10288000
    88  C          0.76413000       0.28168000       0.39712000
    89  H          0.68260000       0.24960000       0.86610000
    90  H          0.31740000       0.74960000       0.63390000
    91  H          0.31740000       0.75040000       0.13390000
    92  H          0.68260000       0.25040000       0.36610000
    93  C          0.83577000       0.27782000       0.65652000
    94  C          0.16423000       0.77782000       0.84348000
    95  C          0.16423000       0.72218000       0.34348000
    96  C          0.83577000       0.22218000       0.15652000
    97  C          0.94517000       0.24222000       0.61962000
    98  C          0.05483000       0.74222000       0.88038000
    99  C          0.05483000       0.75778000       0.38038000
   100  C          0.94517000       0.25778000       0.11962000
   101  C          0.07337000       0.20135190       0.57152000
   102  C          0.92663000       0.70135190       0.92848000
   103  C          0.92663000       0.79864810       0.42848000
   104  C          0.07337000       0.29864810       0.07152000
   105  C          0.07247000       0.12026190       0.48102000
   106  C          0.92753000       0.62026190       0.01898000
   107  C          0.92753000       0.87973810       0.51898000
   108  C          0.07247000       0.37973810       0.98102000
   109  C          0.29646000       0.12232000       0.47552000
   110  C          0.70354000       0.62232000       0.02448000
   111  C          0.70354000       0.87768000       0.52448000
   112  C          0.29646000       0.37768000       0.97552000
   113  H          0.36860000       0.09380000       0.44150000
   114  H          0.63140000       0.59380000       0.05850000
   115  H          0.63140000       0.90620000       0.55850000
   116  H          0.36860000       0.40620000       0.94150000
   117  C          0.41227000       0.16772000       0.52142000
   118  C          0.58773000       0.66772000       0.97858000
   119  C          0.58773000       0.83228000       0.47858000
   120  C          0.41227000       0.33228000       0.02142000
   121  H          0.56750000       0.17140000       0.51960000
   122  H          0.43250000       0.67140000       0.98040000
   123  H          0.43250000       0.82860000       0.48040000
   124  H          0.56750000       0.32860000       0.01960000
   125  C          0.29817000       0.20762000       0.57002000
   126  C          0.70183000       0.70762000       0.92998000
   127  C          0.70183000       0.79238000       0.42998000
   128  C          0.29817000       0.29238000       0.07002000
   129  H          0.37450000       0.23900000       0.60220000
   130  H          0.62550000       0.73900000       0.89780000
   131  H          0.62550000       0.76100000       0.39780000
   132  H          0.37450000       0.26100000       0.10220000
   133  C          0.46047000       0.55330190       0.75752000
   134  C          0.53953000       0.05330190       0.74248000
   135  C          0.53953000       0.44669810       0.24248000
   136  C          0.46047000       0.94669810       0.25752000
   137  C          0.24428000       0.55112000       0.71103000
   138  C          0.75572000       0.05112000       0.78897000
   139  C          0.75572000       0.44888000       0.28897000
   140  C          0.24428000       0.94888000       0.21103000
   141  H          0.15860000       0.51120000       0.72540000
   142  H          0.84140000       0.01120000       0.77460000
   143  H          0.84140000       0.48880000       0.27460000
   144  H          0.15860000       0.98880000       0.22540000
   145  H          0.27490000       0.54770000       0.65810000
   146  H          0.72510000       0.04770000       0.84190000
   147  H          0.72510000       0.45230000       0.34190000
   148  H          0.27490000       0.95230000       0.15810000
   149  H          0.16020000       0.59290000       0.71950000
   150  H          0.83980000       0.09290000       0.78050000
   151  H          0.83980000       0.40710000       0.28050000
   152  H          0.16020000       0.90710000       0.21950000
   153  C          0.42658000       0.55082000       0.84022000
   154  C          0.57342000       0.05082000       0.65978000
   155  C          0.57342000       0.44918000       0.15978000
   156  C          0.42658000       0.94918000       0.34022000
   157  H          0.56880000       0.54460000       0.86740000
   158  H          0.43120000       0.04460000       0.63260000
   159  H          0.43120000       0.45540000       0.13260000
   160  H          0.56880000       0.95540000       0.36740000
   161  H          0.32940000       0.51240000       0.85110000
   162  H          0.67060000       0.01240000       0.64890000
   163  H          0.67060000       0.48760000       0.14890000
   164  H          0.32940000       0.98760000       0.35110000
   165  H          0.35950000       0.59370000       0.85590000
   166  H          0.64050000       0.09370000       0.64410000
   167  H          0.64050000       0.40630000       0.14410000
   168  H          0.35950000       0.90630000       0.35590000
   169  C          0.59308000       0.61602000       0.73912000
   170  C          0.40692000       0.11602000       0.76088000
   171  C          0.40692000       0.38398000       0.26088000
   172  C          0.59308000       0.88398000       0.23912000
   173  H          0.61950000       0.61620000       0.68580000
   174  H          0.38050000       0.11620000       0.81420000
   175  H          0.38050000       0.38380000       0.31420000
   176  H          0.61950000       0.88380000       0.18580000
   177  H          0.73400000       0.61510000       0.76780000
   178  H          0.26600000       0.11510000       0.73220000
   179  H          0.26600000       0.38490000       0.23220000
   180  H          0.73400000       0.88490000       0.26780000
   181  H          0.51130000       0.65720000       0.75180000
   182  H          0.48870000       0.15720000       0.74820000
   183  H          0.48870000       0.34280000       0.24820000
   184  H          0.51130000       0.84280000       0.25180000
