data_OLOVET02
_symmetry_space_group_name_H-M    'P1'
_symmetry_Int_Tables_number       1
loop_
_symmetry_equiv_pos_site_id
_symmetry_equiv_pos_as_xyz
1 x,y,z
_cell_length_a                   6.13187
_cell_length_b                   9.881411
_cell_length_c                   18.0502
_cell_angle_alpha                93.4612
_cell_angle_beta                 93.2682
_cell_angle_gamma                90.6302
loop_
_atom_site_label
_atom_site_type_symbol
_atom_site_fract_x
_atom_site_fract_y
_atom_site_fract_z
     1  N          0.02424000       0.57793000       0.75742860
     2  N         -0.02424000       0.42207000       0.24257140
     3  N          0.43554000       0.33663000       0.54492850
     4  N          0.56446000       0.66337000       0.45507150
     5  N          0.60236000       0.32583000       0.95485850
     6  N          0.39764000       0.67417000       0.04514150
     7  Br         0.36920700       0.14135500       0.43113700
     8  Br         0.63079300       0.85864500       0.56886300
     9  Br         0.66384300       0.14533500       0.06305300
    10  Br         0.33615700       0.85466500       0.93694700
    11  O          0.93175000      -0.00708000       0.75196840
    12  O          0.06825000       0.00708000       0.24803160
    13  C          0.16255000       0.65373000       0.72161830
    14  C          0.83745000       0.34627000       0.27838170
    15  C          0.15055000       0.79353000       0.71847820
    16  C          0.84945000       0.20647000       0.28152180
    17  H          0.25660000       0.84250000       0.69410000
    18  H          0.74340000       0.15750000       0.30590000
    19  C         -0.02126000       0.86033000       0.75198820
    20  C          0.02126000       0.13967000       0.24801180
    21  C          0.83195000       0.78213000       0.78792820
    22  C          0.16805000       0.21787000       0.21207180
    23  H          0.71170000       0.82370000       0.81070000
    24  H          0.28830000       0.17630000       0.18930000
    25  C          0.86145000       0.64413000       0.79045830
    26  C          0.13855000       0.35587000       0.20954170
    27  C          0.31985000       0.57763000       0.68037820
    28  C          0.68015000       0.42237000       0.31962180
    29  C          0.43015000       0.50923000       0.64117820
    30  C          0.56985000       0.49077000       0.35882180
    31  C          0.55475000       0.42603000       0.59090820
    32  C          0.44525000       0.57397000       0.40909180
    33  C          0.54405000       0.26103000       0.49769820
    34  C          0.45595000       0.73897000       0.50230180
    35  C          0.76855000       0.26354000       0.49226810
    36  C          0.23145000       0.73646000       0.50773190
    37  H          0.83760000       0.20420000       0.45770000
    38  H          0.16240000       0.79580000       0.54230000
    39  C          0.88685000       0.35554000       0.53901810
    40  C          0.11315000       0.64446000       0.46098190
    41  H          0.04100000       0.36210000       0.53700000
    42  H          0.95900000       0.63790000       0.46300000
    43  C          0.77875000       0.43854000       0.58910810
    44  C          0.22125000       0.56146000       0.41089190
    45  H          0.85760000       0.50300000       0.62170000
    46  H          0.14240000       0.49700000       0.37830000
    47  C          0.71925000       0.56163000       0.83020820
    48  C          0.28075000       0.43837000       0.16979180
    49  C          0.61075000       0.49133000       0.86535810
    50  C          0.38925000       0.50867000       0.13464190
    51  C          0.48525000       0.40843000       0.91066820
    52  C          0.51475000       0.59157000       0.08933180
    53  C          0.49125000       0.25184000      -0.00203190
    54  C          0.50875000       0.74816000       0.00203190
    55  C          0.26775000       0.24814000       0.00092190
    56  C          0.73225000       0.75186000      -0.00092190
    57  H          0.19740000       0.19030000       0.03260000
    58  H          0.80260000       0.80970000       0.96740000
    59  C          0.15045000       0.33234000       0.95577810
    60  C          0.84955000       0.66766000       0.04422190
    61  H         -0.00440000       0.33390000       0.95590000
    62  H          0.00440000       0.66610000       0.04410000
    63  C          0.26015000       0.41463000       0.91019810
    64  C          0.73985000       0.58537000       0.08980190
    65  H          0.18210000       0.47400000       0.87920000
    66  H          0.81790000       0.52600000       0.12080000
    67  C          0.07686000       0.10203000       0.73188000
    68  C          0.92314000       0.89797000       0.26812000
    69  C          0.11098000       0.09094000       0.64868000
    70  C          0.88902000       0.90906000       0.35132000
    71  H          0.20790000       0.01510000       0.63740000
    72  H          0.79210000       0.98490000       0.36260000
    73  H          0.17700000       0.17530000       0.63410000
    74  H          0.82300000       0.82470000       0.36590000
    75  H          0.96980000       0.07510000       0.62110000
    76  H          0.03020000       0.92490000       0.37890000
    77  C          0.28988000       0.10304000       0.77787000
    78  C          0.71012000       0.89696000       0.22213000
    79  H          0.26060000       0.10710000       0.83080000
    80  H          0.73940000       0.89290000       0.16920000
    81  H          0.37760000       0.18240000       0.76740000
    82  H          0.62240000       0.81760000       0.23260000
    83  H          0.36990000       0.02030000       0.76530000
    84  H          0.63010000       0.97970000       0.23470000
    85  C          0.94502000       0.22624000       0.75087000
    86  C          0.05498000       0.77376000       0.24913000
    87  H          0.80710000       0.22230000       0.72060000
    88  H          0.19290000       0.77770000       0.27940000
    89  H          0.02810000       0.30770000       0.74060000
    90  H          0.97190000       0.69230000       0.25940000
    91  H          0.91480000       0.22940000       0.80370000
    92  H          0.08520000       0.77060000       0.19630000
