data_OVICII01
_symmetry_space_group_name_H-M    'P1'
_symmetry_Int_Tables_number       1
loop_
_symmetry_equiv_pos_site_id
_symmetry_equiv_pos_as_xyz
1 x,y,z
_cell_length_a                   10.09412
_cell_length_b                   10.15822
_cell_length_c                   10.82833
_cell_angle_alpha                63.1832
_cell_angle_beta                 70.3792
_cell_angle_gamma                80.7042
loop_
_atom_site_label
_atom_site_type_symbol
_atom_site_fract_x
_atom_site_fract_y
_atom_site_fract_z
     1  Cl         0.98639600       0.90523400       0.22631700
     2  Cl         0.01360400       0.09476600       0.77368300
     3  Cl         0.37916800       0.88194700      -0.00282300
     4  Cl         0.62083200       0.11805300       0.00282300
     5  O          0.84902120       0.55891150       0.61937150
     6  O          0.15097880       0.44108850       0.38062850
     7  O          0.43008120       0.20575150       0.63031140
     8  O          0.56991880       0.79424850       0.36968860
     9  N          0.86121130       0.38795150       0.52934150
    10  N          0.13878870       0.61204850       0.47065850
    11  H          0.95089400       0.38952600       0.49047600
    12  H          0.04910600       0.61047400       0.50952400
    13  N          0.41943130       0.37431160       0.72391150
    14  N          0.58056870       0.62568840       0.27608850
    15  C          0.77180160       0.29967180       0.52559170
    16  C          0.22819840       0.70032820       0.47440830
    17  C          0.64431160       0.43654180       0.64547180
    18  C          0.35568840       0.56345820       0.35452820
    19  C          0.63739160       0.32817180       0.59872170
    20  C          0.36260840       0.67182820       0.40127830
    21  C          0.47121160       0.56815190       0.78739180
    22  C          0.52878840       0.43184810       0.21260820
    23  C          0.51144160       0.46464180       0.72096170
    24  C          0.48855840       0.53535820       0.27903830
    25  C          0.82487170       0.20472170       0.45144170
    26  C          0.17512830       0.79527830       0.54855830
    27  C          0.79018160       0.47311190       0.60248180
    28  C          0.20981840       0.52688810       0.39751820
    29  C          0.96880180       0.19682000       0.38180190
    30  C          0.03119820       0.80318000       0.61819810
    31  H          0.03189100       0.25395700       0.38209700
    32  H          0.96810900       0.74604300       0.61790300
    33  C          0.49073160       0.28826180       0.64726180
    34  C          0.50926840       0.71173820       0.35273820
    35  C          0.26564150       0.38933190       0.76194180
    36  C          0.73435850       0.61066810       0.23805820
    37  H          0.23600800       0.39088100       0.68484800
    38  H          0.76399200       0.60911900       0.31515200
    39  H          0.23934900       0.48365400       0.76630200
    40  H          0.76065100       0.51634600       0.23369800
    41  C          0.36446160       0.53882000       0.91827190
    42  C          0.63553840       0.46118000       0.08172810
    43  H          0.31199300       0.45341600       0.96247700
    44  H          0.68800700       0.54658400       0.03752300
    45  C          0.54761190       0.69711190       0.72262000
    46  C          0.45238810       0.30288810       0.27738000
    47  H          0.61919700       0.71808700       0.63569000
    48  H          0.38080300       0.28191300       0.36431000
    49  C          0.73155180       0.11954190       0.44750190
    50  C          0.26844820       0.88045810       0.55249810
    51  H          0.63570000       0.12491500       0.49200200
    52  H          0.36430000       0.87508500       0.50799800
    53  C          0.78016190       0.02742000       0.37822000
    54  C          0.21983810       0.97258000       0.62178000
    55  H          0.71779900       0.97100000       0.37586800
    56  H          0.28220100       0.02900000       0.62413200
    57  C          0.01751190       0.10502000       0.31292000
    58  C          0.98248810       0.89498000       0.68708000
    59  H          0.11306100       0.09984900       0.26707900
    60  H          0.88693900       0.90015100       0.73292100
    61  C          0.18593170       0.26922000       0.90417190
    62  C          0.81406830       0.73078000       0.09582810
    63  H          0.22019500       0.25920700       0.98165700
    64  H          0.77980500       0.74079300       0.01834300
    65  H          0.19997500       0.17560300       0.89744200
    66  H          0.80002500       0.82439700       0.10255800
    67  C          0.33572180       0.63472000       0.98302000
    68  C          0.66427820       0.36528000       0.01698000
    69  H          0.26538700       0.61366100       0.07070600
    70  H          0.73461300       0.38633900       0.92929400
    71  C          0.92312000       0.02062000       0.31242000
    72  C          0.07688000       0.97938000       0.68758000
    73  C          0.03038180       0.31052000       0.93622000
    74  C          0.96961820       0.68948000       0.06378000
    75  H          0.00030200       0.33326600       0.85349700
    76  H         -0.00030200       0.66673400       0.14650300
    77  H          0.01555100       0.39505700       0.95706300
    78  H          0.98444900       0.60494300       0.04293700
    79  H          0.97712500       0.22922900       0.01843400
    80  H          0.02287500       0.77077100       0.98156600
    81  C          0.51852000       0.79442000       0.78562000
    82  C          0.48148000       0.20558000       0.21438000
    83  H          0.56946200       0.88077900       0.74108600
    84  H          0.43053800       0.11922100       0.25891400
    85  C          0.41292000       0.76232000       0.91552000
    86  C          0.58708000       0.23768000       0.08448000
