data_OVICII
_symmetry_space_group_name_H-M    'P1'
_symmetry_Int_Tables_number       1
loop_
_symmetry_equiv_pos_site_id
_symmetry_equiv_pos_as_xyz
1 x,y,z
_cell_length_a                   6.10892
_cell_length_b                   9.65675
_cell_length_c                   15.87736
_cell_angle_alpha                87.0084
_cell_angle_beta                 88.2633
_cell_angle_gamma                88.1593
loop_
_atom_site_label
_atom_site_type_symbol
_atom_site_fract_x
_atom_site_fract_y
_atom_site_fract_z
     1  Cl         0.59174120       0.87117300       0.75033500
     2  Cl         0.40825880       0.12882700       0.24966500
     3  Cl         0.23208180       0.91406110       0.02712600
     4  Cl         0.76791820       0.08593890       0.97287400
     5  O          0.08903000       0.57404180       0.39848110
     6  O          0.91097000       0.42595820       0.60151890
     7  O          0.90763000       0.23308190       0.36989120
     8  O          0.09237000       0.76691810       0.63010880
     9  N          0.24803000       0.39384190       0.47886130
    10  N          0.75197000       0.60615810       0.52113870
    11  H          0.14686200       0.38899300       0.51770200
    12  H          0.85313800       0.61100700       0.48229800
    13  N          0.74323000       0.40802000       0.28550140
    14  N          0.25677000       0.59198000       0.71449860
    15  C          0.47054000       0.20022000       0.54355150
    16  C          0.52946000       0.79978000       0.45644850
    17  C          0.55744000       0.34922000       0.40740150
    18  C          0.44256000       0.65078000       0.59259850
    19  C          0.44264000       0.45922000       0.36266150
    20  C          0.55736000       0.54078000       0.63733850
    21  C          0.43504000       0.30852000       0.47838150
    22  C          0.56496000       0.69148000       0.52161850
    23  C          0.24194000       0.48762000       0.40998150
    24  C          0.75806000       0.51238000       0.59001850
    25  C          0.75404000       0.31642000       0.35833160
    26  C          0.24596000       0.68358000       0.64166840
    27  C          0.55594000       0.49372000       0.28760150
    28  C          0.44406000       0.50628000       0.71239850
    29  C          0.70684000       0.02082000       0.60826170
    30  C          0.29316000       0.97918000       0.39173830
    31  H          0.83891800       0.97026500       0.60947200
    32  H          0.16108200       0.02973500       0.39052800
    33  C          0.54364000      -0.00572000       0.66905170
    34  C          0.45636000       0.00572000       0.33094830
    35  C          0.67004000       0.12352000       0.54574160
    36  C          0.32996000       0.87648000       0.45425840
    37  H          0.77848100       0.14205800       0.50471500
    38  H          0.22151900       0.85794200       0.49528500
    39  C          0.48784000       0.59583000       0.22162160
    40  C          0.51216000       0.40417000       0.77837840
    41  C          0.30774000       0.16873000       0.60492170
    42  C          0.69226000       0.83127000       0.39507830
    43  H          0.17371600       0.21720800       0.60362700
    44  H          0.82628400       0.78279200       0.39637300
    45  C          0.92824000       0.41273000       0.22546170
    46  C          0.07176000       0.58727000       0.77453830
    47  H          0.06234200       0.39761400       0.25623600
    48  H          0.93765800       0.60238600       0.74376400
    49  H          0.93190500       0.50492400       0.19818700
    50  H          0.06809500       0.49507600       0.80181300
    51  C          0.34404000       0.06623000       0.66735180
    52  C          0.65596000       0.93377000       0.33264820
    53  H          0.23521900       0.04567400       0.70791100
    54  H          0.76478100       0.95432600       0.29208900
    55  C          0.33555000       0.69763000       0.24264170
    56  C          0.66445000       0.30237000       0.75735830
    57  H          0.28544400       0.70169200       0.29838400
    58  H          0.71455600       0.29830800       0.70161600
    59  C          0.25525000       0.79403000       0.18272000
    60  C          0.74475000       0.20597000       0.81728000
    61  H          0.15058500       0.86067000       0.19825400
    62  H          0.84941500       0.13933000       0.80174600
    63  C          0.92365000       0.30793000       0.15822000
    64  C          0.07635000       0.69207000       0.84178000
    65  H          0.78324000       0.31528000       0.13107600
    66  H          0.21676000       0.68472000       0.86892400
    67  H          0.93958800       0.21509600       0.18417000
    68  H          0.06041200       0.78490400       0.81583000
    69  C          0.32925000       0.79123000       0.10132000
    70  C          0.67075000       0.20877000       0.89868000
    71  C          0.54886000       0.58874000       0.13602000
    72  C          0.45114000       0.41126000       0.86398000
    73  H          0.64376000       0.51747600       0.11912700
    74  H          0.35624000       0.48252400       0.88087300
    75  C          0.10636000       0.33094000       0.09212000
    76  C          0.89364000       0.66906000       0.90788000
    77  H          0.10800900       0.25791200       0.05325500
    78  H          0.89199100       0.74208800       0.94674500
    79  H          0.24453800       0.33065000       0.11934100
    80  H          0.75546200       0.66935000       0.88065900
    81  H          0.08174400       0.41857700       0.06204100
    82  H          0.91825600       0.58142300       0.93795900
    83  C          0.47016000       0.68594000       0.07602000
    84  C          0.52984000       0.31406000       0.92398000
    85  H          0.51196100       0.68011600       0.01949700
    86  H          0.48803900       0.31988400       0.98050300
