data_OVICII02
_symmetry_space_group_name_H-M    'P1'
_symmetry_Int_Tables_number       1
loop_
_symmetry_equiv_pos_site_id
_symmetry_equiv_pos_as_xyz
1 x,y,z
_cell_length_a                   7.57759
_cell_length_b                   7.94568
_cell_length_c                   16.209613
_cell_angle_alpha                103.9278
_cell_angle_beta                 96.2268
_cell_angle_gamma                104.1861
loop_
_atom_site_label
_atom_site_type_symbol
_atom_site_fract_x
_atom_site_fract_y
_atom_site_fract_z
     1  Cl         0.78831900       0.08628110       0.21592500
     2  Cl         0.21168100       0.91371890       0.78407500
     3  Cl        -0.00269880       0.32143110       0.04568500
     4  Cl         0.00269880       0.67856890       0.95431500
     5  O          0.61443000       0.04263000       0.61501120
     6  O          0.38557000       0.95737000       0.38498880
     7  O          0.29453000       0.29633000       0.63246130
     8  O          0.70547000       0.70367000       0.36753870
     9  N          0.48213000       0.56113000       0.73050130
    10  N          0.51787000       0.43887000       0.26949870
    11  N          0.40793000       0.78493000       0.52106130
    12  N          0.59207000       0.21507000       0.47893870
    13  H          0.38990400       0.82897500       0.47838300
    14  H          0.61009600       0.17102500       0.52161700
    15  C          0.38944000       0.58663000       0.59817150
    16  C          0.61056000       0.41337000       0.40182850
    17  C          0.56273000       0.73803000       0.73129150
    18  C          0.43727000       0.26197000       0.26870850
    19  C          0.19424000       0.48164000       0.44436160
    20  C          0.80576000       0.51836000       0.55563840
    21  C          0.52384000       0.88494000       0.59977160
    22  C          0.47616000       0.11506000       0.40022840
    23  C          0.37364000       0.45664000       0.64830160
    24  C          0.62636000       0.54336000       0.35169840
    25  C          0.50933000       0.75463000       0.65027150
    26  C          0.49067000       0.24537000       0.34972850
    27  C          0.86894000       0.15344000       0.95412170
    28  C          0.13106000       0.84656000       0.04587830
    29  C          0.66954000       0.88013000       0.80875150
    30  C          0.33046000       0.11987000       0.19124850
    31  C          0.32514000       0.60733000       0.51893160
    32  C          0.67486000       0.39267000       0.48106840
    33  C          0.94406000       0.23894000       0.30430170
    34  C          0.05594000       0.76106000       0.69569830
    35  C          0.11534000       0.30404000       0.44567170
    36  C          0.88466000       0.69596000       0.55432830
    37  H          0.14838900       0.26770500       0.49412900
    38  H          0.85161100       0.73229500       0.50587100
    39  C          0.39194000       0.40584000       0.84323170
    40  C          0.60806000       0.59416000       0.15676830
    41  H          0.28212500       0.32123400       0.80501500
    42  H          0.71787500       0.67876600       0.19498500
    43  H          0.35771300       0.51051400       0.87396400
    44  H          0.64228700       0.48948600       0.12603600
    45  C          0.79934000       0.02884000       0.80061170
    46  C          0.20066000       0.97116000       0.19938830
    47  H          0.81933500       0.03680700       0.74590700
    48  H          0.18066500       0.96319300       0.25409300
    49  C          0.01974000       0.41194000       0.30107170
    50  C         -0.01974000       0.58806000       0.69892830
    51  H         -0.01293400       0.44707100       0.25218900
    52  H          0.01293400       0.55292900       0.74781100
    53  C          0.53794000       0.46334000       0.79064160
    54  C          0.46206000       0.53666000       0.20935840
    55  H          0.65014100       0.53993200       0.82983800
    56  H          0.34985900       0.46006800       0.17016200
    57  H          0.56594800       0.35663400       0.75790600
    58  H          0.43405200       0.64336600       0.24209400
    59  C         -0.01094000       0.18134000       0.37644180
    60  C          0.01094000       0.81866000       0.62355820
    61  H          0.93580600       0.06373800       0.37793900
    62  H          0.06419400       0.93626200       0.62206100
    63  C          0.73684000       0.01184000       0.96379170
    64  C          0.26316000      -0.01184000       0.03620830
    65  H          0.71432100       0.00725500       0.01860300
    66  H          0.28567900      -0.00725500       0.98139700
    67  C          0.90034000       0.16664000       0.87296190
    68  C          0.09966000       0.83336000       0.12703810
    69  H         -0.01250800       0.26591400       0.86693700
    70  H          0.01250800       0.73408600       0.13306300
    71  C          0.14504000       0.53404000       0.37109170
    72  C          0.85496000       0.46596000       0.62890830
    73  H          0.19668300       0.65169200       0.36921700
    74  H          0.80331700       0.34830800       0.63078300
    75  C          0.63604000       0.87434000       0.89164160
    76  C          0.36396000       0.12566000       0.10835840
    77  H          0.54577100       0.77789600       0.89825300
    78  H          0.45422900       0.22210400       0.10174700
    79  C          0.46685000       0.31704000       0.90777190
    80  C          0.53315000       0.68296000       0.09222810
    81  H          0.49780100       0.21190400       0.87709100
    82  H          0.50219900       0.78809600       0.12290900
    83  H          0.37424300       0.28224400       0.94122600
    84  H          0.62575700       0.71775600       0.05877400
    85  H          0.57528800       0.40107400       0.94550600
    86  H          0.42471200       0.59892600       0.05449400
