data_OWAFAW
_symmetry_space_group_name_H-M    'P1'
_symmetry_Int_Tables_number       1
loop_
_symmetry_equiv_pos_site_id
_symmetry_equiv_pos_as_xyz
1 x,y,z
_cell_length_a                   30.426811
_cell_length_b                   8.05543
_cell_length_c                   8.70014
_cell_angle_alpha                90.0
_cell_angle_beta                 95.7723
_cell_angle_gamma                90.0
loop_
_atom_site_label
_atom_site_type_symbol
_atom_site_fract_x
_atom_site_fract_y
_atom_site_fract_z
     1  S          0.47155200       0.38455800       0.68155300
     2  S          0.52844800       0.88455800       0.81844700
     3  S          0.52844800       0.61544200       0.31844700
     4  S          0.47155200       0.11544200       0.18155300
     5  C          0.47898700       0.47143000       0.50417000
     6  C          0.52101300       0.97143000      -0.00417000
     7  C          0.52101300       0.52857000       0.49583000
     8  C          0.47898700       0.02857000       0.00417000
     9  C          0.54972700       0.50542000       0.63588000
    10  C          0.45027300       0.00542000       0.86412000
    11  C          0.45027300       0.49458000       0.36412000
    12  C          0.54972700      -0.00542000       0.13588000
    13  C          0.52644700       0.42793000       0.74817000
    14  C          0.47355300       0.92793000       0.75183000
    15  C          0.47355300       0.57207000       0.25183000
    16  C          0.52644700       0.07207000       0.24817000
    17  C          0.54720800       0.39103000       0.89517000
    18  C          0.45279200       0.89103000       0.60483000
    19  C          0.45279200       0.60897000       0.10483000
    20  C          0.54720800       0.10897000       0.39517000
    21  C          0.59129800       0.43003000       0.93007000
    22  C          0.40870200       0.93003000       0.56993000
    23  C          0.40870200       0.56997000       0.06993000
    24  C          0.59129800       0.06997000       0.43007000
    25  C          0.61406800       0.50773000       0.81717000
    26  C          0.38593200       0.00773000       0.68283000
    27  C          0.38593200       0.49227000       0.18283000
    28  C          0.61406800      -0.00773000       0.31717000
    29  C          0.59399800       0.54583000       0.67317000
    30  C          0.40600200       0.04583000       0.82683000
    31  C          0.40600200       0.45417000       0.32683000
    32  C          0.59399800       0.95417000       0.17317000
    33  H          0.60980000       0.59950000       0.60010000
    34  H          0.39020000       0.09950000       0.89990000
    35  H          0.39020000       0.40050000       0.39990000
    36  H          0.60980000       0.90050000       0.10010000
    37  H          0.64460000       0.53360000       0.84050000
    38  H          0.35540000       0.03360000       0.65950000
    39  H          0.35540000       0.46640000       0.15950000
    40  H          0.64460000       0.96640000       0.34050000
    41  C          0.61457900       0.38103000       0.08523000
    42  C          0.38542100       0.88103000       0.41477000
    43  C          0.38542100       0.61897000       0.91477000
    44  C          0.61457900       0.11897000       0.58523000
    45  C          0.64246800       0.51453000       0.16873000
    46  C          0.35753200       0.01453000       0.33127000
    47  C          0.35753200       0.48547000       0.83127000
    48  C          0.64246800      -0.01453000       0.66873000
    49  C          0.66568900       0.45523000       0.32033000
    50  C          0.33431100       0.95523000       0.17967000
    51  C          0.33431100       0.54477000       0.67967000
    52  C          0.66568900       0.04477000       0.82033000
    53  C          0.69347800       0.58763000       0.40543000
    54  C          0.30652200       0.08763000       0.09457000
    55  C          0.30652200       0.41237000       0.59457000
    56  C          0.69347800       0.91237000       0.90543000
    57  C          0.71812900       0.53103000       0.55373000
    58  C          0.28187100       0.03103000       0.94627000
    59  C          0.28187100       0.46897000       0.44627000
    60  C          0.71812900       0.96897000       0.05373000
    61  O          0.74501600       0.66222000       0.61814190
    62  O          0.25498400       0.16222000       0.88185810
    63  O          0.25498400       0.33778000       0.38185810
    64  O          0.74501600       0.83778000       0.11814190
    65  H          0.75170000       0.64230000       0.70530000
    66  H          0.24830000       0.14230000       0.79470000
    67  H          0.24830000       0.35770000       0.29470000
    68  H          0.75170000       0.85770000       0.20530000
    69  H          0.73620000       0.43960000       0.53220000
    70  H          0.26380000       0.93960000       0.96780000
    71  H          0.26380000       0.56040000       0.46780000
    72  H          0.73620000       0.06040000       0.03220000
    73  H          0.69740000       0.49530000       0.62510000
    74  H          0.30260000      -0.00470000       0.87490000
    75  H          0.30260000       0.50470000       0.37490000
    76  H          0.69740000       0.00470000       0.12510000
    77  H          0.67390000       0.67910000       0.42920000
    78  H          0.32610000       0.17910000       0.07080000
    79  H          0.32610000       0.32090000       0.57080000
    80  H          0.67390000       0.82090000       0.92920000
    81  H          0.71400000       0.62700000       0.33870000
    82  H          0.28600000       0.12700000       0.16130000
    83  H          0.28600000       0.37300000       0.66130000
    84  H          0.71400000       0.87300000       0.83870000
    85  H          0.68340000       0.36110000       0.30050000
    86  H          0.31660000       0.86110000       0.19950000
    87  H          0.31660000       0.63890000       0.69950000
    88  H          0.68340000       0.13890000       0.80050000
    89  H          0.64400000       0.41580000       0.38400000
    90  H          0.35600000       0.91580000       0.11600000
    91  H          0.35600000       0.58420000       0.61600000
    92  H          0.64400000       0.08420000       0.88400000
    93  H          0.66450000       0.55500000       0.10310000
    94  H          0.33550000       0.05500000       0.39690000
    95  H          0.33550000       0.44500000       0.89690000
    96  H          0.66450000       0.94500000       0.60310000
    97  H          0.62370000       0.60760000       0.18820000
    98  H          0.37630000       0.10760000       0.31180000
    99  H          0.37630000       0.39240000       0.81180000
   100  H          0.62370000       0.89240000       0.68820000
   101  H          0.59330000       0.34230000       0.15260000
   102  H          0.40670000       0.84230000       0.34740000
   103  H          0.40670000       0.65770000       0.84740000
   104  H          0.59330000       0.15770000       0.65260000
   105  H          0.63510000       0.28830000       0.07140000
   106  H          0.36490000       0.78830000       0.42860000
   107  H          0.36490000       0.71170000       0.92860000
   108  H          0.63510000       0.21170000       0.57140000
   109  H          0.53150000       0.34250000       0.96980000
   110  H          0.46850000       0.84250000       0.53020000
   111  H          0.46850000       0.65750000       0.03020000
   112  H          0.53150000       0.15750000       0.46980000
   113  S          0.93716200       0.08755800       0.53592700
   114  S          0.06283800       0.58755800       0.96407300
   115  S          0.06283800       0.91244200       0.46407300
   116  S          0.93716200       0.41244200       0.03592700
   117  C          0.93392700       0.01003000       0.34713000
   118  C          0.06607300       0.51003000       0.15287000
   119  C          0.06607300      -0.01003000       0.65287000
   120  C          0.93392700       0.48997000       0.84713000
   121  C          0.97456700       0.95073000       0.30683000
   122  C          0.02543300       0.45073000       0.19317000
   123  C          0.02543300       0.04927000       0.69317000
   124  C          0.97456700       0.54927000       0.80683000
   125  C          0.99250700       0.03413000       0.56433000
   126  C          0.00749300       0.53413000       0.93567000
   127  C          0.00749300       0.96587000       0.43567000
   128  C          0.99250700       0.46587000       0.06433000
   129  C          0.97680800       0.88673000       0.15853000
   130  C          0.02319200       0.38673000       0.34147000
   131  C          0.02319200       0.11327000       0.84147000
   132  C          0.97680800       0.61327000       0.65853000
   133  C          0.93921800       0.87753000       0.05863000
   134  C          0.06078200       0.37753000       0.44137000
   135  C          0.06078200       0.12247000       0.94137000
   136  C          0.93921800       0.62247000       0.55863000
   137  C          0.89811800       0.93053000       0.09963000
   138  C          0.10188200       0.43053000       0.40037000
   139  C          0.10188200       0.06947000       0.90037000
   140  C          0.89811800       0.56947000       0.59963000
   141  C          0.89568800      -0.00097000       0.24453000
   142  C          0.10431200       0.49903000       0.25547000
   143  C          0.10431200       0.00097000       0.75547000
   144  C          0.89568800       0.50097000       0.74453000
   145  H          0.86890000       0.03390000       0.27250000
   146  H          0.13110000       0.53390000       0.22750000
   147  H          0.13110000       0.96610000       0.72750000
   148  H          0.86890000       0.46610000       0.77250000
   149  C          0.85709900       0.90953000      -0.01087000
   150  C          0.14290100       0.40953000       0.51087000
   151  C          0.14290100       0.09047000       0.01087000
   152  C          0.85709900       0.59047000       0.48913000
   153  C          0.85475800       0.02153000       0.84853000
   154  C          0.14524200       0.52153000       0.65147000
   155  C          0.14524200       0.97847000       0.15147000
   156  C          0.85475800       0.47847000       0.34853000
   157  C          0.81380800      -0.00787000       0.73873000
   158  C          0.18619200       0.49213000       0.76127000
   159  C          0.18619200       0.00787000       0.26127000
   160  C          0.81380800       0.50787000       0.23873000
   161  C          0.80967100       0.10024000       0.59623000
   162  C          0.19032900       0.60024000       0.90377000
   163  C          0.19032900       0.89976000       0.40377000
   164  C          0.80967100       0.39976000       0.09623000
   165  C          0.76875100       0.07163000       0.48913000
   166  C          0.23124900       0.57163000       0.01087000
   167  C          0.23124900       0.92837000       0.51087000
   168  C          0.76875100       0.42837000      -0.01087000
   169  O          0.76710900       0.91192000       0.42132000
   170  O          0.23289100       0.41192000       0.07868000
   171  O          0.23289100       0.08808000       0.57868000
   172  O          0.76710900       0.58808000       0.92132000
   173  H          0.76050000       0.84860000       0.48670000
   174  H          0.23950000       0.34860000       0.01330000
   175  H          0.23950000       0.15140000       0.51330000
   176  H          0.76050000       0.65140000      -0.01330000
   177  H          0.76800000       0.15020000       0.40420000
   178  H          0.23200000       0.65020000       0.09580000
   179  H          0.23200000       0.84980000       0.59580000
   180  H          0.76800000       0.34980000       0.90420000
   181  H          0.74180000       0.08860000       0.54440000
   182  H          0.25820000       0.58860000       0.95560000
   183  H          0.25820000       0.91140000       0.45560000
   184  H          0.74180000       0.41140000       0.04440000
   185  H          0.81000000       0.21550000       0.62670000
   186  H          0.19000000       0.71550000       0.87330000
   187  H          0.19000000       0.78450000       0.37330000
   188  H          0.81000000       0.28450000       0.12670000
   189  H          0.83440000       0.07650000       0.54030000
   190  H          0.16560000       0.57650000       0.95970000
   191  H          0.16560000       0.92350000       0.45970000
   192  H          0.83440000       0.42350000       0.04030000
   193  H          0.81350000       0.87580000       0.70810000
   194  H          0.18650000       0.37580000       0.79190000
   195  H          0.18650000       0.12420000       0.29190000
   196  H          0.81350000       0.62420000       0.20810000
   197  H          0.78720000       0.01220000       0.79390000
   198  H          0.21280000       0.51220000       0.70610000
   199  H          0.21280000      -0.01220000       0.20610000
   200  H          0.78720000       0.48780000       0.29390000
   201  H          0.85630000       0.13650000       0.88020000
   202  H          0.14370000       0.63650000       0.61980000
   203  H          0.14370000       0.86350000       0.11980000
   204  H          0.85630000       0.36350000       0.38020000
   205  H          0.88080000       0.00020000       0.79400000
   206  H          0.11920000       0.50020000       0.70600000
   207  H          0.11920000      -0.00020000       0.20600000
   208  H          0.88080000       0.49980000       0.29400000
   209  H          0.83100000       0.93040000       0.04540000
   210  H          0.16900000       0.43040000       0.45460000
   211  H          0.16900000       0.06960000       0.95460000
   212  H          0.83100000       0.56960000       0.54540000
   213  H          0.85500000       0.79560000       0.95640000
   214  H          0.14500000       0.29560000       0.54360000
   215  H          0.14500000       0.20440000       0.04360000
   216  H          0.85500000       0.70440000       0.45640000
   217  H          0.94130000       0.83270000       0.96030000
   218  H          0.05870000       0.33270000       0.53970000
   219  H          0.05870000       0.16730000       0.03970000
   220  H          0.94130000       0.66730000       0.46030000
   221  H          0.00410000       0.85030000       0.13030000
   222  H         -0.00410000       0.35030000       0.36970000
   223  H         -0.00410000       0.14970000       0.86970000
   224  H          0.00410000       0.64970000       0.63030000
