data_OWAFAW05
_symmetry_space_group_name_H-M    'P1'
_symmetry_Int_Tables_number       1
loop_
_symmetry_equiv_pos_site_id
_symmetry_equiv_pos_as_xyz
1 x,y,z
_cell_length_a                   5.8193
_cell_length_b                   47.8431
_cell_length_c                   7.7042
_cell_angle_alpha                90.0
_cell_angle_beta                 90.46012
_cell_angle_gamma                90.0
loop_
_atom_site_label
_atom_site_type_symbol
_atom_site_fract_x
_atom_site_fract_y
_atom_site_fract_z
     1  S          0.28906800       0.01848210       0.38690600
     2  S          0.71093200       0.51848210       0.11309400
     3  S          0.71093200       0.98151790       0.61309400
     4  S          0.28906800       0.48151790       0.88690600
     5  C          0.09613000       0.99391600       0.46422000
     6  C          0.90387000       0.49391600       0.03578000
     7  C          0.90387000       0.00608400       0.53578000
     8  C          0.09613000       0.50608400       0.96422000
     9  C          0.09653000       0.96406600       0.47052000
    10  C          0.90347000       0.46406600       0.02948000
    11  C          0.90347000       0.03593400       0.52948000
    12  C          0.09653000       0.53593400       0.97052000
    13  C          0.89497000       0.95432600       0.55263000
    14  C          0.10503000       0.45432600       0.94737000
    15  C          0.10503000       0.04567400       0.44737000
    16  C          0.89497000       0.54567400       0.05263000
    17  C          0.85657000       0.92607600       0.58243000
    18  C          0.14343000       0.42607600       0.91757000
    19  C          0.14343000       0.07392400       0.41757000
    20  C          0.85657000       0.57392400       0.08243000
    21  C          0.01903000       0.90659600       0.52843000
    22  C         -0.01903000       0.40659600       0.97157000
    23  C         -0.01903000       0.09340400       0.47157000
    24  C          0.01903000       0.59340400       0.02843000
    25  C          0.21523000       0.91612600       0.43983000
    26  C          0.78477000       0.41612600       0.06017000
    27  C          0.78477000       0.08387400       0.56017000
    28  C          0.21523000       0.58387400       0.93983000
    29  C          0.25593000       0.94423600       0.41122000
    30  C          0.74407000       0.44423600       0.08878000
    31  C          0.74407000       0.05576400       0.58878000
    32  C          0.25593000       0.55576400       0.91122000
    33  H          0.39040000       0.95010000       0.35230000
    34  H          0.60960000       0.45010000       0.14770000
    35  H          0.60960000       0.04990000       0.64770000
    36  H          0.39040000       0.54990000       0.85230000
    37  H          0.32280000       0.90280000       0.39860000
    38  H          0.67720000       0.40280000       0.10140000
    39  H          0.67720000       0.09720000       0.60140000
    40  H          0.32280000       0.59720000       0.89860000
    41  C         -0.01044000       0.87593600       0.57003000
    42  C          0.01044000       0.37593600       0.92997000
    43  C          0.01044000       0.12406400       0.42997000
    44  C         -0.01044000       0.62406400       0.07003000
    45  C          0.78506000       0.86181600       0.48093000
    46  C          0.21494000       0.36181600       0.01907000
    47  C          0.21494000       0.13818400       0.51907000
    48  C          0.78506000       0.63818400       0.98093000
    49  C          0.75446000       0.83162600       0.54093000
    50  C          0.24554000       0.33162600       0.95907000
    51  C          0.24554000       0.16837400       0.45907000
    52  C          0.75446000       0.66837400       0.04093000
    53  C          0.54516000       0.81751500       0.45753000
    54  C          0.45484000       0.31751500       0.04247000
    55  C          0.45484000       0.18248500       0.54247000
    56  C          0.54516000       0.68248500       0.95753000
    57  C          0.50725000       0.78817500       0.52444000
    58  C          0.49275000       0.28817500       0.97556000
    59  C          0.49275000       0.21182500       0.47556000
    60  C          0.50725000       0.71182500       0.02444000
    61  O          0.30266000       0.77699600       0.44703000
    62  O          0.69734000       0.27699600       0.05297000
    63  O          0.69734000       0.22300400       0.55297000
    64  O          0.30266000       0.72300400       0.94703000
    65  H          0.28050000       0.76126000       0.49140000
    66  H          0.71950000       0.26126000       0.00860000
    67  H          0.71950000       0.23874000       0.50860000
    68  H          0.28050000       0.73874000      -0.00860000
    69  H          0.64020000       0.77630000       0.49420000
    70  H          0.35980000       0.27630000       0.00580000
    71  H          0.35980000       0.22370000       0.50580000
    72  H          0.64020000       0.72370000      -0.00580000
    73  H          0.49280000       0.78840000       0.65230000
    74  H          0.50720000       0.28840000       0.84770000
    75  H          0.50720000       0.21160000       0.34770000
    76  H          0.49280000       0.71160000       0.15230000
    77  H          0.40670000       0.82890000       0.48140000
    78  H          0.59330000       0.32890000       0.01860000
    79  H          0.59330000       0.17110000       0.51860000
    80  H          0.40670000       0.67110000       0.98140000
    81  H          0.56560000       0.81690000       0.33010000
    82  H          0.43440000       0.31690000       0.16990000
    83  H          0.43440000       0.18310000       0.66990000
    84  H          0.56560000       0.68310000       0.83010000
    85  H          0.89400000       0.82080000       0.51140000
    86  H          0.10600000       0.32080000      -0.01140000
    87  H          0.10600000       0.17920000       0.48860000
    88  H          0.89400000       0.67920000       0.01140000
    89  H          0.73810000       0.83130000       0.66870000
    90  H          0.26190000       0.33130000       0.83130000
    91  H          0.26190000       0.16870000       0.33130000
    92  H          0.73810000       0.66870000       0.16870000
    93  H          0.80740000       0.86210000       0.35360000
    94  H          0.19260000       0.36210000       0.14640000
    95  H          0.19260000       0.13790000       0.64640000
    96  H          0.80740000       0.63790000       0.85360000
    97  H          0.64380000       0.87250000       0.50680000
    98  H          0.35620000       0.37250000      -0.00680000
    99  H          0.35620000       0.12750000       0.49320000
   100  H          0.64380000       0.62750000       0.00680000
   101  H          0.97320000       0.87390000       0.69720000
   102  H          0.02680000       0.37390000       0.80280000
   103  H          0.02680000       0.12610000       0.30280000
   104  H          0.97320000       0.62610000       0.19720000
   105  H          0.13130000       0.86600000       0.53590000
   106  H          0.86870000       0.36600000       0.96410000
   107  H          0.86870000       0.13400000       0.46410000
   108  H          0.13130000       0.63400000       0.03590000
   109  H          0.72100000       0.92010000       0.63920000
   110  H          0.27900000       0.42010000       0.86080000
   111  H          0.27900000       0.07990000       0.36080000
   112  H          0.72100000       0.57990000       0.13920000
   113  S          0.20857800       0.98146090       0.88709300
   114  S          0.79142200       0.48146090       0.61290700
   115  S          0.79142200       0.01853910       0.11290700
   116  S          0.20857800       0.51853910       0.38709300
   117  C          0.40263000       0.00604400       0.96408000
   118  C          0.59737000       0.50604400       0.53592000
   119  C          0.59737000       0.99395600       0.03592000
   120  C          0.40263000       0.49395600       0.46408000
   121  C          0.40203000       0.03589400       0.96868000
   122  C          0.59797000       0.53589400       0.53132000
   123  C          0.59797000       0.96410600       0.03132000
   124  C          0.40203000       0.46410600       0.46868000
   125  C          0.60733000       0.04568400       0.05153000
   126  C          0.39267000       0.54568400       0.44847000
   127  C          0.39267000       0.95431600       0.94847000
   128  C          0.60733000       0.45431600       0.55153000
   129  C          0.64583000       0.07402400       0.08003000
   130  C          0.35417000       0.57402400       0.41997000
   131  C          0.35417000       0.92597600       0.91997000
   132  C          0.64583000       0.42597600       0.58003000
   133  C          0.48274000       0.09341400       0.02423000
   134  C          0.51726000       0.59341400       0.47577000
   135  C          0.51726000       0.90658600       0.97577000
   136  C          0.48274000       0.40658600       0.52423000
   137  C          0.28414000       0.08385400       0.93647000
   138  C          0.71586000       0.58385400       0.56353000
   139  C          0.71586000       0.91614600       0.06353000
   140  C          0.28414000       0.41614600       0.43647000
   141  C          0.24233000       0.05568400       0.90867000
   142  C          0.75767000       0.55568400       0.59133000
   143  C          0.75767000       0.94431600       0.09133000
   144  C          0.24233000       0.44431600       0.40867000
   145  H          0.10650000       0.04980000       0.85000000
   146  H          0.89350000       0.54980000       0.65000000
   147  H          0.89350000       0.95020000       0.15000000
   148  H          0.10650000       0.45020000       0.35000000
   149  H          0.17560000       0.09710000       0.89490000
   150  H          0.82440000       0.59710000       0.60510000
   151  H          0.82440000       0.90290000       0.10510000
   152  H          0.17560000       0.40290000       0.39490000
   153  C          0.51694000       0.12410400       0.06173000
   154  C          0.48306000       0.62410400       0.43827000
   155  C          0.48306000       0.87589600       0.93827000
   156  C          0.51694000       0.37589600       0.56173000
   157  C          0.71324000       0.13768400       0.96247000
   158  C          0.28676000       0.63768400       0.53753000
   159  C          0.28676000       0.86231600       0.03753000
   160  C          0.71324000       0.36231600       0.46247000
   161  C          0.75074000       0.16818400       0.01163000
   162  C          0.24926000       0.66818400       0.48837000
   163  C          0.24926000       0.83181600      -0.01163000
   164  C          0.75074000       0.33181600       0.51163000
   165  C          0.94834000       0.18157500       0.91236000
   166  C          0.05166000       0.68157500       0.58764000
   167  C          0.05166000       0.81842500       0.08764000
   168  C          0.94834000       0.31842500       0.41236000
   169  C         -0.02385000       0.21261500       0.94726000
   170  C          0.02385000       0.71261500       0.55274000
   171  C          0.02385000       0.78738500       0.05274000
   172  C         -0.02385000       0.28738500       0.44726000
   173  O          0.77594000       0.22802400       0.89887000
   174  O          0.22406000       0.72802400       0.60113000
   175  O          0.22406000       0.77197600       0.10113000
   176  O          0.77594000       0.27197600       0.39887000
   177  H          0.74860000       0.22677000       0.79280000
   178  H          0.25140000       0.72677000       0.70720000
   179  H          0.25140000       0.77323000       0.20720000
   180  H          0.74860000       0.27323000       0.29280000
   181  H          0.00660000       0.21550000       0.07270000
   182  H         -0.00660000       0.71550000       0.42730000
   183  H         -0.00660000       0.78450000       0.92730000
   184  H          0.00660000       0.28450000       0.57270000
   185  H          0.11010000       0.21980000       0.88250000
   186  H          0.88990000       0.71980000       0.61750000
   187  H          0.88990000       0.78020000       0.11750000
   188  H          0.11010000       0.28020000       0.38250000
   189  H          0.09310000       0.17190000       0.94410000
   190  H          0.90690000       0.67190000       0.55590000
   191  H          0.90690000       0.82810000       0.05590000
   192  H          0.09310000       0.32810000       0.44410000
   193  H          0.92190000       0.17880000       0.78650000
   194  H          0.07810000       0.67880000       0.71350000
   195  H          0.07810000       0.82120000       0.21350000
   196  H          0.92190000       0.32120000       0.28650000
   197  H          0.78350000       0.16940000       0.13770000
   198  H          0.21650000       0.66940000       0.36230000
   199  H          0.21650000       0.83060000       0.86230000
   200  H          0.78350000       0.33060000       0.63770000
   201  H          0.60780000       0.17880000      -0.01220000
   202  H          0.39220000       0.67880000       0.51220000
   203  H          0.39220000       0.82120000       0.01220000
   204  H          0.60780000       0.32120000       0.48780000
   205  H          0.68040000       0.13640000       0.83650000
   206  H          0.31960000       0.63640000       0.66350000
   207  H          0.31960000       0.86360000       0.16350000
   208  H          0.68040000       0.36360000       0.33650000
   209  H          0.85620000       0.12710000      -0.01380000
   210  H          0.14380000       0.62710000       0.51380000
   211  H          0.14380000       0.87290000       0.01380000
   212  H          0.85620000       0.37290000       0.48620000
   213  H          0.54550000       0.12650000       0.18760000
   214  H          0.45450000       0.62650000       0.31240000
   215  H          0.45450000       0.87350000       0.81240000
   216  H          0.54550000       0.37350000       0.68760000
   217  H          0.37280000       0.13410000       0.03240000
   218  H          0.62720000       0.63410000       0.46760000
   219  H          0.62720000       0.86590000       0.96760000
   220  H          0.37280000       0.36590000       0.53240000
   221  H          0.78230000       0.08010000       0.13720000
   222  H          0.21770000       0.58010000       0.36280000
   223  H          0.21770000       0.91990000       0.86280000
   224  H          0.78230000       0.41990000       0.63720000
