data_OWAFAW04
_symmetry_space_group_name_H-M    'P1'
_symmetry_Int_Tables_number       1
loop_
_symmetry_equiv_pos_site_id
_symmetry_equiv_pos_as_xyz
1 x,y,z
_cell_length_a                   5.8694
_cell_length_b                   47.392
_cell_length_c                   7.8927
_cell_angle_alpha                90.0
_cell_angle_beta                 90.3907
_cell_angle_gamma                90.0
loop_
_atom_site_label
_atom_site_type_symbol
_atom_site_fract_x
_atom_site_fract_y
_atom_site_fract_z
     1  S          0.28303000       0.01855300       0.38592000
     2  S          0.71697000       0.51855300       0.11408000
     3  S          0.71697000       0.98144700       0.61408000
     4  S          0.28303000       0.48144700       0.88592000
     5  C          0.09299000       0.99386870       0.46517000
     6  C          0.90701000       0.49386870       0.03483000
     7  C          0.90701000       0.00613130       0.53483000
     8  C          0.09299000       0.50613130       0.96517000
     9  C          0.09469000       0.96394870       0.47157000
    10  C          0.90531000       0.46394870       0.02843000
    11  C          0.90531000       0.03605130       0.52843000
    12  C          0.09469000       0.53605130       0.97157000
    13  C          0.89711000       0.95390870       0.55497000
    14  C          0.10289000       0.45390870       0.94503000
    15  C          0.10289000       0.04609130       0.44503000
    16  C          0.89711000       0.54609130       0.05497000
    17  C          0.86148900       0.92558870       0.58239000
    18  C          0.13851100       0.42558870       0.91761000
    19  C          0.13851100       0.07441130       0.41761000
    20  C          0.86148900       0.57441130       0.08239000
    21  C          0.01941100       0.90568860       0.52911000
    22  C         -0.01941100       0.40568860       0.97089000
    23  C         -0.01941100       0.09431140       0.47089000
    24  C          0.01941100       0.59431140       0.02911000
    25  C          0.20991100       0.91536860       0.44189000
    26  C          0.79008900       0.41536860       0.05811000
    27  C          0.79008900       0.08463140       0.55811000
    28  C          0.20991100       0.58463140       0.94189000
    29  C          0.25221000       0.94376870       0.41058000
    30  C          0.74779000       0.44376870       0.08942000
    31  C          0.74779000       0.05623130       0.58942000
    32  C          0.25221000       0.55623130       0.91058000
    33  H          0.38260000       0.94970000       0.34920000
    34  H          0.61740000       0.44970000       0.15080000
    35  H          0.61740000       0.05030000       0.65080000
    36  H          0.38260000       0.55030000       0.84920000
    37  H          0.31520000       0.90190000       0.39930000
    38  H          0.68480000       0.40190000       0.10070000
    39  H          0.68480000       0.09810000       0.60070000
    40  H          0.31520000       0.59810000       0.89930000
    41  C         -0.01131300       0.87503860       0.56711000
    42  C          0.01131300       0.37503860       0.93289000
    43  C          0.01131300       0.12496140       0.43289000
    44  C         -0.01131300       0.62496140       0.06711000
    45  C          0.78988800       0.86072860       0.48221100
    46  C          0.21011200       0.36072860       0.01778900
    47  C          0.21011200       0.13927140       0.51778900
    48  C          0.78988800       0.63927140       0.98221100
    49  C          0.75948700       0.83037850       0.53431100
    50  C          0.24051300       0.33037850       0.96568900
    51  C          0.24051300       0.16962150       0.46568900
    52  C          0.75948700       0.66962150       0.03431100
    53  C          0.55738500       0.81584840       0.45201300
    54  C          0.44261500       0.31584840       0.04798700
    55  C          0.44261500       0.18415160       0.54798700
    56  C          0.55738500       0.68415160       0.95201300
    57  C          0.51880000       0.78628000       0.51121600
    58  C          0.48120000       0.28628000      -0.01121600
    59  C          0.48120000       0.21372000       0.48878400
    60  C          0.51880000       0.71372000       0.01121600
    61  O          0.32508400       0.77546840       0.42921400
    62  O          0.67491600       0.27546840       0.07078600
    63  O          0.67491600       0.22453160       0.57078600
    64  O          0.32508400       0.72453160       0.92921400
    65  H          0.51360000       0.78500000       0.63120000
    66  H          0.48640000       0.28500000       0.86880000
    67  H          0.48640000       0.21500000       0.36880000
    68  H          0.51360000       0.71500000       0.13120000
    69  H          0.64120000       0.77520000       0.47000000
    70  H          0.35880000       0.27520000       0.03000000
    71  H          0.35880000       0.22480000       0.53000000
    72  H          0.64120000       0.72480000       0.97000000
    73  H          0.42240000       0.82590000       0.47910000
    74  H          0.57760000       0.32590000       0.02090000
    75  H          0.57760000       0.17410000       0.52090000
    76  H          0.42240000       0.67410000       0.97910000
    77  H          0.57970000       0.81630000       0.33290000
    78  H          0.42030000       0.31630000       0.16710000
    79  H          0.42030000       0.18370000       0.66710000
    80  H          0.57970000       0.68370000       0.83290000
    81  H          0.73790000       0.83000000       0.65350000
    82  H          0.26210000       0.33000000       0.84650000
    83  H          0.26210000       0.17000000       0.34650000
    84  H          0.73790000       0.67000000       0.15350000
    85  H          0.89500000       0.82050000       0.50680000
    86  H          0.10500000       0.32050000      -0.00680000
    87  H          0.10500000       0.17950000       0.49320000
    88  H          0.89500000       0.67950000       0.00680000
    89  H          0.65630000       0.87080000       0.51200000
    90  H          0.34370000       0.37080000      -0.01200000
    91  H          0.34370000       0.12920000       0.48800000
    92  H          0.65630000       0.62920000       0.01200000
    93  H          0.80880000       0.86130000       0.36280000
    94  H          0.19120000       0.36130000       0.13720000
    95  H          0.19120000       0.13870000       0.63720000
    96  H          0.80880000       0.63870000       0.86280000
    97  H         -0.02390000       0.87250000       0.68600000
    98  H          0.02390000       0.37250000       0.81400000
    99  H          0.02390000       0.12750000       0.31400000
   100  H         -0.02390000       0.62750000       0.18600000
   101  H          0.12190000       0.86580000       0.52780000
   102  H          0.87810000       0.36580000       0.97220000
   103  H          0.87810000       0.13420000       0.47220000
   104  H          0.12190000       0.63420000       0.02780000
   105  H          0.72480000       0.91950000       0.63470000
   106  H          0.27520000       0.41950000       0.86530000
   107  H          0.27520000       0.08050000       0.36530000
   108  H          0.72480000       0.58050000       0.13470000
   109  H          0.33587000       0.75805000       0.42918000
   110  H          0.66413000       0.25805000       0.07082000
   111  H          0.66413000       0.24195000       0.57082000
   112  H          0.33587000       0.74195000       0.92918000
   113  S          0.78513000       0.01861300       0.11422000
   114  S          0.21487000       0.51861300       0.38578000
   115  S          0.21487000       0.98138700       0.88578000
   116  S          0.78513000       0.48138700       0.61422000
   117  C          0.59139000       0.99384860       0.03597000
   118  C          0.40861000       0.49384860       0.46403000
   119  C          0.40861000       0.00615140       0.96403000
   120  C          0.59139000       0.50615140       0.53597000
   121  C          0.59481000       0.96386860       0.03078000
   122  C          0.40519000       0.46386860       0.46922000
   123  C          0.40519000       0.03613140       0.96922000
   124  C          0.59481000       0.53613140       0.53078000
   125  C          0.39611000       0.95412860       0.94782000
   126  C          0.60389000       0.45412860       0.55218000
   127  C          0.60389000       0.04587140       0.05218000
   128  C          0.39611000       0.54587140       0.44782000
   129  C          0.36301100       0.92541850       0.92091000
   130  C          0.63698900       0.42541850       0.57909000
   131  C          0.63698900       0.07458150       0.07909000
   132  C          0.36301100       0.57458150       0.42091000
   133  C          0.52081100       0.90570850       0.97639000
   134  C          0.47918900       0.40570850       0.52361000
   135  C          0.47918900       0.09429150       0.02361000
   136  C          0.52081100       0.59429150       0.47639000
   137  C          0.71361200       0.91567850       0.06539000
   138  C          0.28638800       0.41567850       0.43461000
   139  C          0.28638800       0.08432150       0.93461000
   140  C          0.71361200       0.58432150       0.56539000
   141  C          0.75181000       0.94385860       0.09297000
   142  C          0.24819000       0.44385860       0.40703000
   143  C          0.24819000       0.05614140       0.90703000
   144  C          0.75181000       0.55614140       0.59297000
   145  H          0.88200000       0.94980000       0.15570000
   146  H          0.11800000       0.44980000       0.34430000
   147  H          0.11800000       0.05020000       0.84430000
   148  H          0.88200000       0.55020000       0.65570000
   149  H          0.82300000       0.90250000       0.10560000
   150  H          0.17700000       0.40250000       0.39440000
   151  H          0.17700000       0.09750000       0.89440000
   152  H          0.82300000       0.59750000       0.60560000
   153  C          0.48651300       0.87501850       0.94018900
   154  C          0.51348700       0.37501850       0.55981100
   155  C          0.51348700       0.12498150       0.05981100
   156  C          0.48651300       0.62498150       0.44018900
   157  C          0.29101300       0.86135850       0.03321100
   158  C          0.70898700       0.36135850       0.46678900
   159  C          0.70898700       0.13864150       0.96678900
   160  C          0.29101300       0.63864150       0.53321100
   161  C          0.25341300       0.83059840      -0.01061100
   162  C          0.74658700       0.33059840       0.51061100
   163  C          0.74658700       0.16940160       0.01061100
   164  C          0.25341300       0.66940160       0.48938900
   165  C          0.05961500       0.81719830       0.08011400
   166  C          0.94038500       0.31719830       0.41988600
   167  C          0.94038500       0.18280170       0.91988600
   168  C          0.05961500       0.68280170       0.58011400
   169  C          0.02420000       0.78648000       0.04281600
   170  C          0.97580000       0.28648000       0.45718400
   171  C          0.97580000       0.21352000       0.95718400
   172  C          0.02420000       0.71352000       0.54281600
   173  O          0.22551500       0.77037850       0.09341100
   174  O          0.77448500       0.27037850       0.40658900
   175  O          0.77448500       0.22962150       0.90658900
   176  O          0.22551500       0.72962150       0.59341100
   177  H          0.24314000       0.77180000       0.19640000
   178  H          0.75686000       0.27180000       0.30360000
   179  H          0.75686000       0.22820000       0.80360000
   180  H          0.24314000       0.72820000       0.69640000
   181  H          0.89760000       0.77970000       0.10540000
   182  H          0.10240000       0.27970000       0.39460000
   183  H          0.10240000       0.22030000       0.89460000
   184  H          0.89760000       0.72030000       0.60540000
   185  H         -0.00440000       0.78400000       0.92510000
   186  H          0.00440000       0.28400000       0.57490000
   187  H          0.00440000       0.21600000       0.07490000
   188  H         -0.00440000       0.71600000       0.42510000
   189  H          0.07820000       0.81990000       0.19860000
   190  H          0.92180000       0.31990000       0.30140000
   191  H          0.92180000       0.18010000       0.80140000
   192  H          0.07820000       0.68010000       0.69860000
   193  H          0.92390000       0.82630000       0.04300000
   194  H          0.07610000       0.32630000       0.45700000
   195  H          0.07610000       0.17370000       0.95700000
   196  H          0.92390000       0.67370000       0.54300000
   197  H          0.38750000       0.82050000       0.01990000
   198  H          0.61250000       0.32050000       0.48010000
   199  H          0.61250000       0.17950000       0.98010000
   200  H          0.38750000       0.67950000       0.51990000
   201  H          0.22880000       0.82910000       0.87060000
   202  H          0.77120000       0.32910000       0.62940000
   203  H          0.77120000       0.17090000       0.12940000
   204  H          0.22880000       0.67090000       0.37060000
   205  H          0.31880000       0.86280000       0.15160000
   206  H          0.68120000       0.36280000       0.34840000
   207  H          0.68120000       0.13720000       0.84840000
   208  H          0.31880000       0.63720000       0.65160000
   209  H          0.15560000       0.87140000       0.00490000
   210  H          0.84440000       0.37140000       0.49510000
   211  H          0.84440000       0.12860000      -0.00490000
   212  H          0.15560000       0.62860000       0.50490000
   213  H          0.62220000       0.86540000       0.97210000
   214  H          0.37780000       0.36540000       0.52790000
   215  H          0.37780000       0.13460000       0.02790000
   216  H          0.62220000       0.63460000       0.47210000
   217  H          0.46120000       0.87280000       0.82190000
   218  H          0.53880000       0.37280000       0.67810000
   219  H          0.53880000       0.12720000       0.17810000
   220  H          0.46120000       0.62720000       0.32190000
   221  H          0.22980000       0.91910000       0.86330000
   222  H          0.77020000       0.41910000       0.63670000
   223  H          0.77020000       0.08090000       0.13670000
   224  H          0.22980000       0.58090000       0.36330000
   225  C         -0.02380000       0.21352000       0.95718400
   226  C         -0.02380000       0.28648000       0.45718400
