data_OWAFAW03
_symmetry_space_group_name_H-M    'P1'
_symmetry_Int_Tables_number       1
loop_
_symmetry_equiv_pos_site_id
_symmetry_equiv_pos_as_xyz
1 x,y,z
_cell_length_a                   30.7262
_cell_length_b                   8.07776
_cell_length_c                   8.67837
_cell_angle_alpha                90.0
_cell_angle_beta                 95.9997
_cell_angle_gamma                90.0
loop_
_atom_site_label
_atom_site_type_symbol
_atom_site_fract_x
_atom_site_fract_y
_atom_site_fract_z
     1  S          0.47234300       0.38350140       0.68215880
     2  S          0.52765700       0.88350140       0.81784120
     3  S          0.52765700       0.61649860       0.31784120
     4  S          0.47234300       0.11649860       0.18215880
     5  C          0.47930120       0.47084000       0.50456000
     6  C          0.52069880       0.97084000      -0.00456000
     7  C          0.52069880       0.52916000       0.49544000
     8  C          0.47930120       0.02916000       0.00456000
     9  C          0.54963120       0.50644000       0.63576000
    10  C          0.45036880       0.00644000       0.86424000
    11  C          0.45036880       0.49356000       0.36424000
    12  C          0.54963120      -0.00644000       0.13576000
    13  C          0.52672120       0.42805000       0.74776000
    14  C          0.47327880       0.92805000       0.75224000
    15  C          0.47327880       0.57195000       0.25224000
    16  C          0.52672120       0.07195000       0.24776000
    17  C          0.54773130       0.39135000       0.89615000
    18  C          0.45226870       0.89135000       0.60385000
    19  C          0.45226870       0.60865000       0.10385000
    20  C          0.54773130       0.10865000       0.39615000
    21  C          0.59118130       0.43055000       0.93066000
    22  C          0.40881870       0.93055000       0.56934000
    23  C          0.40881870       0.56945000       0.06934000
    24  C          0.59118130       0.06945000       0.43066000
    25  C          0.61344140       0.50945000       0.81655000
    26  C          0.38655860       0.00945000       0.68345000
    27  C          0.38655860       0.49055000       0.18345000
    28  C          0.61344140      -0.00945000       0.31655000
    29  C          0.59327130       0.54775000       0.67286000
    30  C          0.40672870       0.04775000       0.82714000
    31  C          0.40672870       0.45225000       0.32714000
    32  C          0.59327130       0.95225000       0.17286000
    33  H          0.60880000       0.60140000       0.59790000
    34  H          0.39120000       0.10140000       0.90210000
    35  H          0.39120000       0.39860000       0.40210000
    36  H          0.60880000       0.89860000       0.09790000
    37  H          0.64350000       0.53360000       0.83900000
    38  H          0.35650000       0.03360000       0.66100000
    39  H          0.35650000       0.46640000       0.16100000
    40  H          0.64350000       0.96640000       0.33900000
    41  C          0.61482150       0.38196000       0.08655000
    42  C          0.38517850       0.88196000       0.41345000
    43  C          0.38517850       0.61804000       0.91345000
    44  C          0.61482150       0.11804000       0.58655000
    45  C          0.64262140       0.51346000       0.16695000
    46  C          0.35737860       0.01346000       0.33305000
    47  C          0.35737860       0.48654000       0.83305000
    48  C          0.64262140      -0.01346000       0.66695000
    49  C          0.66628150       0.45476000       0.32015000
    50  C          0.33371850       0.95476000       0.17985000
    51  C          0.33371850       0.54524000       0.67985000
    52  C          0.66628150       0.04524000       0.82015000
    53  C          0.69397140       0.58576000       0.40405000
    54  C          0.30602860       0.08576000       0.09595000
    55  C          0.30602860       0.41424000       0.59595000
    56  C          0.69397140       0.91424000       0.90405000
    57  C          0.71825150       0.53116000       0.55415000
    58  C          0.28174850       0.03116000       0.94585000
    59  C          0.28174850       0.46884000       0.44585000
    60  C          0.71825150       0.96884000       0.05415000
    61  O          0.74543120       0.66045000       0.61593000
    62  O          0.25456880       0.16045000       0.88407000
    63  O          0.25456880       0.33955000       0.38407000
    64  O          0.74543120       0.83955000       0.11593000
    65  H          0.75261600       0.64140000       0.70630000
    66  H          0.24738400       0.14140000       0.79370000
    67  H          0.24738400       0.35860000       0.29370000
    68  H          0.75261600       0.85860000       0.20630000
    69  H          0.73630000       0.43750000       0.53700000
    70  H          0.26370000       0.93750000       0.96300000
    71  H          0.26370000       0.56250000       0.46300000
    72  H          0.73630000       0.06250000       0.03700000
    73  H          0.69780000       0.50000000       0.62760000
    74  H          0.30220000       0.00000000       0.87240000
    75  H          0.30220000       0.50000000       0.37240000
    76  H          0.69780000       0.00000000       0.12760000
    77  H          0.67520000       0.67850000       0.42630000
    78  H          0.32480000       0.17850000       0.07370000
    79  H          0.32480000       0.32150000       0.57370000
    80  H          0.67520000       0.82150000       0.92630000
    81  H          0.71480000       0.62320000       0.33800000
    82  H          0.28520000       0.12320000       0.16200000
    83  H          0.28520000       0.37680000       0.66200000
    84  H          0.71480000       0.87680000       0.83800000
    85  H          0.68420000       0.35990000       0.29990000
    86  H          0.31580000       0.85990000       0.20010000
    87  H          0.31580000       0.64010000       0.70010000
    88  H          0.68420000       0.14010000       0.79990000
    89  H          0.64450000       0.41720000       0.38580000
    90  H          0.35550000       0.91720000       0.11420000
    91  H          0.35550000       0.58280000       0.61420000
    92  H          0.64450000       0.08280000       0.88580000
    93  H          0.66480000       0.54970000       0.09980000
    94  H          0.33520000       0.04970000       0.40020000
    95  H          0.33520000       0.45030000       0.90020000
    96  H          0.66480000       0.95030000       0.59980000
    97  H          0.62410000       0.60770000       0.18630000
    98  H          0.37590000       0.10770000       0.31370000
    99  H          0.37590000       0.39230000       0.81370000
   100  H          0.62410000       0.89230000       0.68630000
   101  H          0.59300000       0.34450000       0.15280000
   102  H          0.40700000       0.84450000       0.34720000
   103  H          0.40700000       0.65550000       0.84720000
   104  H          0.59300000       0.15550000       0.65280000
   105  H          0.63450000       0.28760000       0.07090000
   106  H          0.36550000       0.78760000       0.42910000
   107  H          0.36550000       0.71240000       0.92910000
   108  H          0.63450000       0.21240000       0.57090000
   109  H          0.53220000       0.34200000       0.97210000
   110  H          0.46780000       0.84200000       0.52790000
   111  H          0.46780000       0.65800000       0.02790000
   112  H          0.53220000       0.15800000       0.47210000
   113  S          0.93773300       0.08742150       0.53600120
   114  S          0.06226700       0.58742150       0.96399880
   115  S          0.06226700       0.91257850       0.46399880
   116  S          0.93773300       0.41257850       0.03600120
   117  C          0.93433130       0.00975000       0.34624000
   118  C          0.06566870       0.50975000       0.15376000
   119  C          0.06566870      -0.00975000       0.65376000
   120  C          0.93433130       0.49025000       0.84624000
   121  C          0.97459120       0.95105000       0.30534000
   122  C          0.02540880       0.45105000       0.19466000
   123  C          0.02540880       0.04895000       0.69466000
   124  C          0.97459120       0.54895000       0.80534000
   125  C          0.99268120       0.03365000       0.56464000
   126  C          0.00731880       0.53365000       0.93536000
   127  C          0.00731880       0.96635000       0.43536000
   128  C          0.99268120       0.46635000       0.06464000
   129  C          0.97657140       0.88675000       0.15795000
   130  C          0.02342860       0.38675000       0.34205000
   131  C          0.02342860       0.11325000       0.84205000
   132  C          0.97657140       0.61325000       0.65795000
   133  C          0.93907140       0.87925000       0.05775000
   134  C          0.06092860       0.37925000       0.44225000
   135  C          0.06092860       0.12075000       0.94225000
   136  C          0.93907140       0.62075000       0.55775000
   137  C          0.89853130       0.93115000       0.09885000
   138  C          0.10146870       0.43115000       0.40115000
   139  C          0.10146870       0.06885000       0.90115000
   140  C          0.89853130       0.56885000       0.59885000
   141  C          0.89633130       0.00005000       0.24375000
   142  C          0.10366870       0.50005000       0.25625000
   143  C          0.10366870      -0.00005000       0.75625000
   144  C          0.89633130       0.49995000       0.74375000
   145  H          0.86940000       0.03530000       0.27410000
   146  H          0.13060000       0.53530000       0.22590000
   147  H          0.13060000       0.96470000       0.72590000
   148  H          0.86940000       0.46470000       0.77410000
   149  C          0.85785140       0.91006000      -0.01255000
   150  C          0.14214860       0.41006000       0.51255000
   151  C          0.14214860       0.08994000       0.01255000
   152  C          0.85785140       0.58994000       0.48745000
   153  C          0.85563140       0.02196000       0.84905000
   154  C          0.14436860       0.52196000       0.65095000
   155  C          0.14436860       0.97804000       0.15095000
   156  C          0.85563140       0.47804000       0.34905000
   157  C          0.81433140      -0.00854000       0.73685000
   158  C          0.18566860       0.49146000       0.76315000
   159  C          0.18566860       0.00854000       0.26315000
   160  C          0.81433140       0.50854000       0.23685000
   161  C          0.81031170       0.09817000       0.59576000
   162  C          0.18968830       0.59817000       0.90424000
   163  C          0.18968830       0.90183000       0.40424000
   164  C          0.81031170       0.40183000       0.09576000
   165  C          0.76959180       0.06867000       0.48776000
   166  C          0.23040820       0.56867000       0.01224000
   167  C          0.23040820       0.93133000       0.51224000
   168  C          0.76959180       0.43133000      -0.01224000
   169  O          0.76747160       0.91045000       0.42094000
   170  O          0.23252840       0.41045000       0.07906000
   171  O          0.23252840       0.08955000       0.57906000
   172  O          0.76747160       0.58955000       0.92094000
   173  H          0.75720000       0.84730000       0.48040000
   174  H          0.24280000       0.34730000       0.01960000
   175  H          0.24280000       0.15270000       0.51960000
   176  H          0.75720000       0.65270000       0.98040000
   177  H          0.76840000       0.14990000       0.40280000
   178  H          0.23160000       0.64990000       0.09720000
   179  H          0.23160000       0.85010000       0.59720000
   180  H          0.76840000       0.35010000       0.90280000
   181  H          0.74350000       0.08800000       0.54530000
   182  H          0.25650000       0.58800000       0.95470000
   183  H          0.25650000       0.91200000       0.45470000
   184  H          0.74350000       0.41200000       0.04530000
   185  H          0.81180000       0.21410000       0.62740000
   186  H          0.18820000       0.71410000       0.87260000
   187  H          0.18820000       0.78590000       0.37260000
   188  H          0.81180000       0.28590000       0.12740000
   189  H          0.83490000       0.07450000       0.54060000
   190  H          0.16510000       0.57450000       0.95940000
   191  H          0.16510000       0.92550000       0.45940000
   192  H          0.83490000       0.42550000       0.04060000
   193  H          0.81370000       0.87680000       0.70450000
   194  H          0.18630000       0.37680000       0.79550000
   195  H          0.18630000       0.12320000       0.29550000
   196  H          0.81370000       0.62320000       0.20450000
   197  H          0.78810000       0.01250000       0.79380000
   198  H          0.21190000       0.51250000       0.70620000
   199  H          0.21190000      -0.01250000       0.20620000
   200  H          0.78810000       0.48750000       0.29380000
   201  H          0.85670000       0.13790000       0.88170000
   202  H          0.14330000       0.63790000       0.61830000
   203  H          0.14330000       0.86210000       0.11830000
   204  H          0.85670000       0.36210000       0.38170000
   205  H          0.88070000       0.00270000       0.79470000
   206  H          0.11930000       0.50270000       0.70530000
   207  H          0.11930000      -0.00270000       0.20530000
   208  H          0.88070000       0.49730000       0.29470000
   209  H          0.83140000       0.93190000       0.04250000
   210  H          0.16860000       0.43190000       0.45750000
   211  H          0.16860000       0.06810000       0.95750000
   212  H          0.83140000       0.56810000       0.54250000
   213  H          0.85570000       0.79620000       0.95440000
   214  H          0.14430000       0.29620000       0.54560000
   215  H          0.14430000       0.20380000       0.04560000
   216  H          0.85570000       0.70380000       0.45440000
   217  H          0.94090000       0.83520000       0.95780000
   218  H          0.05910000       0.33520000       0.54220000
   219  H          0.05910000       0.16480000       0.04220000
   220  H          0.94090000       0.66480000       0.45780000
   221  H          0.00350000       0.85010000       0.13030000
   222  H         -0.00350000       0.35010000       0.36970000
   223  H         -0.00350000       0.14990000       0.86970000
   224  H          0.00350000       0.64990000       0.63030000
   225  H          0.24320000       0.15330000       0.52040000
   226  H          0.75680000       0.65330000       0.97960000
   227  H          0.75680000       0.84670000       0.47960000
   228  H          0.24320000       0.34670000       0.02040000
