data_OXIMIU02
_symmetry_space_group_name_H-M    'P1'
_symmetry_Int_Tables_number       1
loop_
_symmetry_equiv_pos_site_id
_symmetry_equiv_pos_as_xyz
1 x,y,z
_cell_length_a                   9.2984
_cell_length_b                   7.2653
_cell_length_c                   21.1898
_cell_angle_alpha                90.0
_cell_angle_beta                 95.4455
_cell_angle_gamma                90.0
loop_
_atom_site_label
_atom_site_type_symbol
_atom_site_fract_x
_atom_site_fract_y
_atom_site_fract_z
     1  S          0.47423500       0.57208700       0.68282300
     2  S          0.52576500       0.07208700       0.81717700
     3  S          0.52576500       0.42791300       0.31717700
     4  S          0.47423500       0.92791300       0.18282300
     5  O          0.37925170       0.55712000       0.73168800
     6  O          0.62074830       0.05712000       0.76831200
     7  O          0.62074830       0.44288000       0.26831200
     8  O          0.37925170       0.94288000       0.23168800
     9  O          0.49755170       0.75032190       0.65792900
    10  O          0.50244830       0.25032190       0.84207100
    11  O          0.50244830       0.24967810       0.34207100
    12  O          0.49755170       0.74967810       0.15792900
    13  N          0.62951170       0.49522000       0.71398800
    14  N          0.37048830      -0.00478000       0.78601200
    15  N          0.37048830       0.50478000       0.28601200
    16  N          0.62951170       0.00478000       0.21398800
    17  H          0.61730000       0.40830000       0.73591100
    18  H          0.38270000       0.90830000       0.76408900
    19  H          0.38270000       0.59170000       0.26408900
    20  H          0.61730000       0.09170000       0.23591100
    21  N          0.83352190       0.81172000       0.70945800
    22  N          0.16647810       0.31172000       0.79054200
    23  N          0.16647810       0.18828000       0.29054200
    24  N          0.83352190       0.68828000       0.20945800
    25  H          0.76535500       0.84493400       0.73173300
    26  H          0.23464500       0.34493400       0.76826700
    27  H          0.23464500       0.15506600       0.26826700
    28  H          0.76535500       0.65506600       0.23173300
    29  C          0.95173000       0.91503000       0.69880120
    30  C          0.04827000       0.41503000       0.80119880
    31  C          0.04827000       0.08497000       0.30119880
    32  C          0.95173000       0.58497000       0.19880120
    33  H          0.97033600       0.03314700       0.71434900
    34  H          0.02966400       0.53314700       0.78565100
    35  H          0.02966400       0.96685300       0.28565100
    36  H          0.97033600       0.46685300       0.21434900
    37  C          0.03743000       0.81994000       0.66231130
    38  C          0.96257000       0.31994000       0.83768870
    39  C          0.96257000       0.18006000       0.33768870
    40  C          0.03743000       0.68006000       0.16231130
    41  H          0.12445600       0.85991400       0.64884400
    42  H          0.87554400       0.35991400       0.85115600
    43  H          0.87554400       0.14008600       0.35115600
    44  H          0.12445600       0.64008600       0.14884400
    45  C          0.96962000       0.64703000       0.64835110
    46  C          0.03038000       0.14703000       0.85164890
    47  C          0.03038000       0.35297000       0.35164890
    48  C          0.96962000       0.85297000       0.14835110
    49  C          0.00433000       0.48984000       0.61536140
    50  C         -0.00433000      -0.01016000       0.88463860
    51  C         -0.00433000       0.51016000       0.38463860
    52  C          0.00433000       0.01016000       0.11536140
    53  H          0.08799800       0.48663800       0.59459900
    54  H          0.91200200      -0.01336200       0.90540100
    55  H          0.91200200       0.51336200       0.40540100
    56  H          0.08799800       0.01336200       0.09459900
    57  C          0.91493000       0.34004000       0.61361130
    58  C          0.08507000       0.84004000       0.88638870
    59  C          0.08507000       0.65996000       0.38638870
    60  C          0.91493000       0.15996000       0.11361130
    61  H          0.93803000       0.23577400       0.59119200
    62  H          0.06197000       0.73577400       0.90880800
    63  H          0.06197000       0.76422600       0.40880800
    64  H          0.93803000       0.26422600       0.09119200
    65  C          0.78992000       0.34113000       0.64478110
    66  C          0.21008000       0.84113000       0.85521890
    67  C          0.21008000       0.65887000       0.35521890
    68  C          0.78992000       0.15887000       0.14478110
    69  H          0.73138200       0.23717100       0.64346500
    70  H          0.26861800       0.73717100       0.85653500
    71  H          0.26861800       0.76282900       0.35653500
    72  H          0.73138200       0.26282900       0.14346500
    73  C          0.75202000       0.49403000       0.67750900
    74  C          0.24798000      -0.00597000       0.82249100
    75  C          0.24798000       0.50597000       0.32249100
    76  C          0.75202000       0.00597000       0.17750900
    77  C          0.84158190       0.64733000       0.67891900
    78  C          0.15841810       0.14733000       0.82108100
    79  C          0.15841810       0.35267000       0.32108100
    80  C          0.84158190       0.85267000       0.17891900
    81  C          0.41263190       0.42542000       0.62027900
    82  C          0.58736810       0.92542000       0.87972100
    83  C          0.58736810       0.57458000       0.37972100
    84  C          0.41263190       0.07458000       0.12027900
    85  C          0.37612000       0.49613000       0.56046100
    86  C          0.62388000      -0.00387000       0.93953900
    87  C          0.62388000       0.50387000       0.43953900
    88  C          0.37612000       0.00387000       0.06046100
    89  H          0.38525500       0.62138100       0.55280400
    90  H          0.61474500       0.12138100       0.94719600
    91  H          0.61474500       0.37861900       0.44719600
    92  H          0.38525500       0.87861900       0.05280400
    93  C          0.32572000       0.37863000       0.51212100
    94  C          0.67428000       0.87863000       0.98787900
    95  C          0.67428000       0.62137000       0.48787900
    96  C          0.32572000       0.12137000       0.01212100
    97  H          0.29960300       0.42650500       0.47196800
    98  H          0.70039700       0.92650500       0.02803200
    99  H          0.70039700       0.57349500       0.52803200
   100  H          0.29960300       0.07349500       0.97196800
   101  C          0.31322000       0.19203000       0.52196100
   102  C          0.68678000       0.69203000       0.97803900
   103  C          0.68678000       0.80797000       0.47803900
   104  C          0.31322000       0.30797000       0.02196100
   105  C          0.35023000       0.12513000       0.58273110
   106  C          0.64977000       0.62513000       0.91726890
   107  C          0.64977000       0.87487000       0.41726890
   108  C          0.35023000       0.37487000       0.08273110
   109  H          0.34132100      -0.00017800       0.59057100
   110  H          0.65867900       0.49982200       0.90942900
   111  H          0.65867900       0.00017800       0.40942900
   112  H          0.34132100       0.50017800       0.09057100
   113  C          0.39932000       0.23963000       0.63129900
   114  C          0.60068000       0.73963000       0.86870100
   115  C          0.60068000       0.76037000       0.36870100
   116  C          0.39932000       0.26037000       0.13129900
   117  H          0.42355800       0.19214800       0.67165600
   118  H          0.57644200       0.69214800       0.82834400
   119  H          0.57644200       0.80785200       0.32834400
   120  H          0.42355800       0.30785200       0.17165600
   121  C          0.26224000       0.06374000       0.46868130
   122  C          0.73776000       0.56374000       0.03131870
   123  C          0.73776000       0.93626000       0.53131870
   124  C          0.26224000       0.43626000       0.96868130
   125  H          0.26040200       0.93990400       0.48445900
   126  H          0.73959800       0.43990400       0.01554100
   127  H          0.73959800       0.06009600       0.51554100
   128  H          0.26040200       0.56009600       0.98445900
   129  H          0.16673900       0.09861200       0.45160200
   130  H          0.83326100       0.59861200       0.04839800
   131  H          0.83326100       0.90138800       0.54839800
   132  H          0.16673900       0.40138800       0.95160200
   133  H          0.32676700       0.07069900       0.43601500
   134  H          0.67323300       0.57069900       0.06398500
   135  H          0.67323300       0.92930100       0.56398500
   136  H          0.32676700       0.42930100       0.93601500
