data_OXIMIU01
_symmetry_space_group_name_H-M    'P1'
_symmetry_Int_Tables_number       1
loop_
_symmetry_equiv_pos_site_id
_symmetry_equiv_pos_as_xyz
1 x,y,z
_cell_length_a                   5.00227
_cell_length_b                   13.040118
_cell_length_c                   20.6893
_cell_angle_alpha                90.0
_cell_angle_beta                 90.0
_cell_angle_gamma                90.0
loop_
_atom_site_label
_atom_site_type_symbol
_atom_site_fract_x
_atom_site_fract_y
_atom_site_fract_z
     1  S          0.47282800       0.88372700       0.92291218
     2  S          0.02717200       0.11627300       0.42291218
     3  S          0.52717200       0.38372700       0.57708782
     4  S         -0.02717200       0.61627300       0.07708782
     5  O          0.75022000       0.89351100       0.94008600
     6  O          0.74978000       0.10648900       0.44008600
     7  O          0.24978000       0.39351100       0.55991400
     8  O          0.25022000       0.60648900       0.05991400
     9  O          0.37163000       0.78737100       0.89984600
    10  O          0.12837000       0.21262900       0.39984600
    11  O          0.62837000       0.28737100       0.60015400
    12  O          0.87163000       0.71262900       0.10015400
    13  N          0.72333000       0.92467890       0.08948700
    14  N          0.77667000       0.07532110       0.58948700
    15  N          0.27667000       0.42467890       0.41051300
    16  N          0.22333000       0.57532110       0.91051300
    17  N          0.29933000       0.91085890       0.98780700
    18  N          0.20067000       0.08914110       0.48780700
    19  N          0.70067000       0.41085890       0.51219300
    20  N          0.79933000       0.58914110       0.01219300
    21  C          0.56093000       0.00275120       0.06949800
    22  C          0.93907000      -0.00275120       0.56949800
    23  C          0.43907000       0.50275120       0.43050200
    24  C          0.06093000       0.49724880       0.93050200
    25  C          0.40094000       0.97802880       0.86425800
    26  C          0.09906000       0.02197120       0.36425800
    27  C          0.59906000       0.47802880       0.63574200
    28  C          0.90094000       0.52197120       0.13574200
    29  C          0.48214000       0.18234120       0.09474700
    30  C          0.01786000       0.81765880       0.59474700
    31  C          0.51786000       0.68234120       0.40525300
    32  C         -0.01786000       0.31765880       0.90525300
    33  H          0.52240000       0.24290000       0.11830000
    34  H         -0.02240000       0.75710000       0.61830000
    35  H          0.47760000       0.74290000       0.38170000
    36  H          0.02240000       0.25710000       0.88170000
    37  C          0.62483000       0.09138120       0.10642700
    38  C          0.87517000       0.90861880       0.60642700
    39  C          0.37517000       0.59138120       0.39357300
    40  C          0.12483000       0.40861880       0.89357300
    41  C          0.12474000       0.03823140       0.77726800
    42  C          0.37526000       0.96176860       0.27726800
    43  C          0.87526000       0.53823140       0.72273200
    44  C          0.62474000       0.46176860       0.22273200
    45  H         -0.01510000       0.02660000       0.74710000
    46  H          0.51510000       0.97340000       0.24710000
    47  H          0.01510000       0.52660000       0.75290000
    48  H          0.48490000       0.47340000       0.25290000
    49  C          0.28304000       0.18270130       0.04866800
    50  C          0.21696000       0.81729870       0.54866800
    51  C          0.71696000       0.68270130       0.45133200
    52  C          0.78304000       0.31729870       0.95133200
    53  H          0.18430000       0.24390000       0.04130000
    54  H          0.31570000       0.75610000       0.54130000
    55  H          0.81570000       0.74390000       0.45870000
    56  H          0.68430000       0.25610000       0.95870000
    57  C          0.22273000       0.09474120       0.01230800
    58  C          0.27727000       0.90525880       0.51230800
    59  C          0.77727000       0.59474120       0.48769200
    60  C          0.72273000       0.40525880       0.98769200
    61  H          0.08590000       0.09740000       0.98050000
    62  H          0.41410000       0.90260000       0.48050000
    63  H          0.91410000       0.59740000       0.51950000
    64  H          0.58590000       0.40260000       0.01950000
    65  C          0.46934000       0.14607130       0.82060800
    66  C          0.03066000       0.85392870       0.32060800
    67  C          0.53066000       0.64607130       0.67939200
    68  C          0.96934000       0.35392870       0.17939200
    69  H          0.56540000       0.20890000       0.82040000
    70  H          0.93460000       0.79110000       0.32040000
    71  H          0.43460000       0.70890000       0.67960000
    72  H          0.06540000       0.29110000       0.17960000
    73  C          0.17404000       0.21738150       0.73223900
    74  C          0.32596000       0.78261850       0.23223900
    75  C          0.82596000       0.71738150       0.76776100
    76  C          0.67404000       0.28261850       0.26776100
    77  H          0.06230000       0.18910000       0.69760000
    78  H          0.43770000       0.81090000       0.19760000
    79  H          0.93770000       0.68910000       0.80240000
    80  H          0.56230000       0.31090000       0.30240000
    81  H          0.33280000       0.24970000       0.71340000
    82  H          0.16720000       0.75030000       0.21340000
    83  H          0.66720000       0.74970000       0.78660000
    84  H          0.83280000       0.25030000       0.28660000
    85  H          0.07170000       0.26860000       0.75650000
    86  H          0.42830000       0.73140000       0.25650000
    87  H          0.92830000       0.76860000       0.74350000
    88  H          0.57170000       0.23140000       0.24350000
    89  C          0.54144000       0.07019120       0.86410800
    90  C          0.95856000       0.92980880       0.36410800
    91  C          0.45856000       0.57019120       0.63589200
    92  C          0.04144000       0.42980880       0.13589200
    93  H          0.68480000       0.08090000       0.89340000
    94  H          0.81520000       0.91910000       0.39340000
    95  H          0.31520000       0.58090000       0.60660000
    96  H          0.18480000       0.41910000       0.10660000
    97  C          0.19274000       0.96156860       0.82085800
    98  C          0.30726000       0.03843140       0.32085800
    99  C          0.80726000       0.46156860       0.67914200
   100  C          0.69274000       0.53843140       0.17914200
   101  H          0.09790000       0.89840000       0.82110000
   102  H          0.40210000       0.10160000       0.32110000
   103  H          0.90210000       0.39840000       0.67890000
   104  H          0.59790000       0.60160000       0.17890000
   105  C          0.25884000       0.13237130       0.77710800
   106  C          0.24116000       0.86762870       0.27710800
   107  C          0.74116000       0.63237130       0.72289200
   108  C          0.75884000       0.36762870       0.22289200
   109  C          0.36073000       0.00415130       0.02238800
   110  C          0.13927000      -0.00415130       0.52238800
   111  C          0.63927000       0.50415130       0.47761200
   112  C          0.86073000       0.49584870       0.97761200
   113  C          0.83544000       0.06097130       0.14963800
   114  C          0.66456000       0.93902870       0.64963800
   115  C          0.16456000       0.56097130       0.35036200
   116  C          0.33544000       0.43902870       0.85036200
   117  H          0.92160000       0.10310000       0.18070000
   118  H          0.57840000       0.89690000       0.68070000
   119  H          0.07840000       0.60310000       0.31930000
   120  H          0.42160000       0.39690000       0.81930000
   121  C          0.88794000       0.96046860       0.13757800
   122  C          0.61206000       0.03953140       0.63757800
   123  C          0.11206000       0.46046860       0.36242200
   124  C          0.38794000       0.53953140       0.86242200
   125  H          0.01940000       0.92080000       0.15930000
   126  H          0.48060000       0.07920000       0.65930000
   127  H         -0.01940000       0.42080000       0.34070000
   128  H          0.51940000       0.57920000       0.84070000
   129  H          0.72140000       0.86688400       0.07551000
   130  H          0.77860000       0.13311600       0.57551000
   131  H          0.27860000       0.36688400       0.42449000
   132  H          0.22140000       0.63311600       0.92449000
   133  H          0.14640000       0.90138500       0.98149000
   134  H          0.35360000       0.09861500       0.48149000
   135  H          0.85360000       0.40138500       0.51851000
   136  H          0.64640000       0.59861500       0.01851000
