data_OXIMIU
_symmetry_space_group_name_H-M    'P1'
_symmetry_Int_Tables_number       1
loop_
_symmetry_equiv_pos_site_id
_symmetry_equiv_pos_as_xyz
1 x,y,z
_cell_length_a                   7.365512
_cell_length_b                   8.911115
_cell_length_c                   10.945818
_cell_angle_alpha                91.2212
_cell_angle_beta                 105.8952
_cell_angle_gamma                100.8922
loop_
_atom_site_label
_atom_site_type_symbol
_atom_site_fract_x
_atom_site_fract_y
_atom_site_fract_z
     1  S          0.16585400       0.47580400       0.85763300
     2  S          0.83414600       0.52419600       0.14236700
     3  O          0.13597140       0.37731110       0.95707900
     4  O          0.86402860       0.62268890       0.04292100
     5  O          0.33344130       0.47719110       0.81456900
     6  O          0.66655870       0.52280890       0.18543100
     7  N          0.17543160       0.64776130       0.91573110
     8  N          0.82456840       0.35223870       0.08426890
     9  N          0.57214160       0.81678140       0.92496110
    10  N          0.42785840       0.18321860       0.07503890
    11  C          0.95804820       0.42422140       0.72598120
    12  C          0.04195180       0.57577860       0.27401880
    13  C          0.21158180       0.77900150       0.84517120
    14  C          0.78841820       0.22099850       0.15482880
    15  C          0.78072810       0.44193150       0.74041120
    16  C          0.21927190       0.55806850       0.25958880
    17  H          0.77360000       0.49060000       0.81650000
    18  H          0.22640000       0.50940000       0.18350000
    19  C          0.61470810       0.38725150       0.64163130
    20  C          0.38529190       0.61274850       0.35836870
    21  H          0.49360000       0.40050000       0.65020000
    22  H          0.50640000       0.59950000       0.34980000
    23  C          0.62259810       0.31318150       0.53001130
    24  C          0.37740190       0.68681850       0.46998870
    25  C          0.44532000      -0.00921850       0.79985130
    26  C          0.55468000       0.00921850       0.20014870
    27  C          0.40181180       0.85280150       0.85765120
    28  C          0.59818820       0.14719850       0.14234880
    29  C          0.97058000       0.35609160       0.61391130
    30  C          0.02942000       0.64390840       0.38608870
    31  H          0.09240000       0.34770000       0.60390000
    32  H          0.90760000       0.65230000       0.39610000
    33  C          0.43988000       0.24522180       0.42704140
    34  C          0.56012000       0.75477820       0.57295860
    35  H          0.41390000       0.13340000       0.42830000
    36  H          0.58610000       0.86660000       0.57170000
    37  H          0.45520000       0.27320000       0.34380000
    38  H          0.54480000       0.72680000       0.65620000
    39  H          0.33200000       0.28500000       0.44220000
    40  H          0.66800000       0.71500000       0.55780000
    41  C          0.80228000       0.30037170       0.51662130
    42  C          0.19772000       0.69962830       0.48337870
    43  H          0.80990000       0.25300000       0.44010000
    44  H          0.19010000       0.74700000       0.55990000
    45  C          0.06412190       0.84277160       0.77254130
    46  C          0.93587810       0.15722840       0.22745870
    47  H          0.93400000       0.79360000       0.76180000
    48  H          0.06600000       0.20640000       0.23820000
    49  C          0.10452000       0.97953170       0.71436140
    50  C          0.89548000       0.02046830       0.28563860
    51  H          0.00110000       0.02170000       0.66530000
    52  H         -0.00110000       0.97830000       0.33470000
    53  C          0.72157190       0.92794160       0.91176140
    54  C          0.27842810       0.07205840       0.08823860
    55  H          0.85440000       0.92930000       0.94980000
    56  H          0.14560000       0.07070000       0.05020000
    57  C          0.65222000       0.03543160       0.83665140
    58  C          0.34778000       0.96456840       0.16334860
    59  H          0.72610000       0.12330000       0.81290000
    60  H          0.27390000       0.87670000       0.18710000
    61  C          0.29272000       0.05372160       0.72737140
    62  C          0.70728000       0.94627840       0.27262860
    63  H          0.31830000       0.14610000       0.68780000
    64  H          0.68170000       0.85390000       0.31220000
    65  H          0.58420000       0.74220000       0.96491700
    66  H          0.41580000       0.25780000       0.03508300
    67  H          0.09630000       0.64820000       0.95601800
    68  H          0.90370000       0.35180000       0.04398200
