data_PAMVIK01
_symmetry_space_group_name_H-M    'P1'
_symmetry_Int_Tables_number       1
loop_
_symmetry_equiv_pos_site_id
_symmetry_equiv_pos_as_xyz
1 x,y,z
_cell_length_a                   10.130001
_cell_length_b                   13.85862
_cell_length_c                   16.16923
_cell_angle_alpha                90.0
_cell_angle_beta                 107.15366
_cell_angle_gamma                90.0
loop_
_atom_site_label
_atom_site_type_symbol
_atom_site_fract_x
_atom_site_fract_y
_atom_site_fract_z
     1  O          0.79905890       0.45944700       0.80879700
     2  O          0.20094110       0.95944700       0.69120300
     3  O          0.20094110       0.54055300       0.19120300
     4  O          0.79905890       0.04055300       0.30879700
     5  O          0.74545890       0.30248700       0.81139700
     6  O          0.25454110       0.80248700       0.68860300
     7  O          0.25454110       0.69751300       0.18860300
     8  O          0.74545890       0.19751300       0.31139700
     9  O          0.77077110       0.85771700       0.55101700
    10  O          0.22922890       0.35771700       0.94898300
    11  O          0.22922890       0.14228300       0.44898300
    12  O          0.77077110       0.64228300       0.05101700
    13  O          0.93826110       0.78518600       0.50858700
    14  O          0.06173890       0.28518600      -0.00858700
    15  O          0.06173890       0.21481400       0.49141300
    16  O          0.93826110       0.71481400       0.00858700
    17  C          0.61991150       0.58797900       0.59826800
    18  C          0.38008850       0.08797900       0.90173200
    19  C          0.38008850       0.41202100       0.40173200
    20  C          0.61991150       0.91202100       0.09826800
    21  C          0.50044150       0.57630900       0.62608900
    22  C          0.49955850       0.07630900       0.87391100
    23  C          0.49955850       0.42369100       0.37391100
    24  C          0.50044150       0.92369100       0.12608900
    25  C          0.40199150       0.54968100       0.64746900
    26  C          0.59800850       0.04968100       0.85253100
    27  C          0.59800850       0.45031900       0.35253100
    28  C          0.40199150       0.95031900       0.14746900
    29  C          0.29828150       0.50628100       0.67078900
    30  C          0.70171850       0.00628100       0.82921100
    31  C          0.70171850       0.49371900       0.32921100
    32  C          0.29828150      -0.00628100       0.17078900
    33  C          0.21541150       0.45640100       0.69135900
    34  C          0.78458850       0.95640100       0.80864100
    35  C          0.78458850       0.54359900       0.30864100
    36  C          0.21541150       0.04359900       0.19135900
    37  C          0.13073140       0.38597900       0.71419900
    38  C          0.86926860       0.88597900       0.78580100
    39  C          0.86926860       0.61402100       0.28580100
    40  C          0.13073140       0.11402100       0.21419900
    41  C          0.01939140       0.41210900       0.74346800
    42  C          0.98060860       0.91210900       0.75653200
    43  C          0.98060860       0.58789100       0.25653200
    44  C          0.01939140       0.08789100       0.24346800
    45  C          0.93656860       0.34203900       0.76459800
    46  C          0.06343140       0.84203900       0.73540200
    47  C          0.06343140       0.65796100       0.23540200
    48  C          0.93656860       0.15796100       0.26459800
    49  C          0.96516860       0.24412100       0.75669900
    50  C          0.03483140       0.74412100       0.74330100
    51  C          0.03483140       0.75587900       0.24330100
    52  C          0.96516860       0.25587900       0.25669900
    53  C          0.07663150       0.21744100       0.72886900
    54  C          0.92336850       0.71744100       0.77113100
    55  C          0.92336850       0.78255900       0.27113100
    56  C          0.07663150       0.28255900       0.22886900
    57  C          0.16186140       0.28690900       0.70763800
    58  C          0.83813860       0.78690900       0.79236200
    59  C          0.83813860       0.71309100       0.29236200
    60  C          0.16186140       0.21309100       0.20763800
    61  C          0.27802140       0.25775900       0.68090800
    62  C          0.72197860       0.75775900       0.81909200
    63  C          0.72197860       0.74224100       0.31909200
    64  C          0.27802140       0.24224100       0.18090800
    65  C          0.37480140       0.22922900       0.65868800
    66  C          0.62519860       0.72922900       0.84131200
    67  C          0.62519860       0.77077100       0.34131200
    68  C          0.37480140       0.27077100       0.15868800
    69  C          0.48080130       0.18029900       0.63317800
    70  C          0.51919870       0.68029900       0.86682200
    71  C          0.51919870       0.81970100       0.36682200
    72  C          0.48080130       0.31970100       0.13317800
    73  C          0.47577140       0.07882900       0.63229900
    74  C          0.52422860       0.57882900       0.86770100
    75  C          0.52422860       0.92117100       0.36770100
    76  C          0.47577140       0.42117100       0.13229900
    77  C          0.57288150       0.02496900       0.60790900
    78  C          0.42711850       0.52496900       0.89209100
    79  C          0.42711850       0.97503100       0.39209100
    80  C          0.57288150       0.47503100       0.10790900
    81  C          0.67780150       0.07091100       0.58385900
    82  C          0.32219850       0.57091100       0.91614100
    83  C          0.32219850       0.92908900       0.41614100
    84  C          0.67780150       0.42908900       0.08385900
    85  C          0.68470150       0.17064900       0.58424900
    86  C          0.31529850       0.67064900       0.91575100
    87  C          0.31529850       0.82935100       0.41575100
    88  C          0.68470150       0.32935100       0.08424900
    89  C          0.58686140       0.22709900       0.60868800
    90  C          0.41313860       0.72709900       0.89131200
    91  C          0.41313860       0.77290100       0.39131200
    92  C          0.58686140       0.27290100       0.10868800
    93  C          0.60544140       0.32896900       0.60568800
    94  C          0.39455860       0.82896900       0.89431200
    95  C          0.39455860       0.67103100       0.39431200
    96  C          0.60544140       0.17103100       0.10568800
    97  C          0.64176140       0.40998900       0.59759800
    98  C          0.35823860       0.90998900       0.90240200
    99  C          0.35823860       0.59001100       0.40240200
   100  C          0.64176140       0.09001100       0.09759800
   101  C          0.69007150       0.50375900       0.58482800
   102  C          0.30992850       0.00375900       0.91517200
   103  C          0.30992850       0.49624100       0.41517200
   104  C          0.69007150      -0.00375900       0.08482800
   105  C          0.80757150       0.51339100       0.55639900
   106  C          0.19242850       0.01339100       0.94360100
   107  C          0.19242850       0.48660900       0.44360100
   108  C          0.80757150       0.98660900       0.05639900
   109  C          0.85437150       0.60374100       0.54105900
   110  C          0.14562850       0.10374100       0.95894100
   111  C          0.14562850       0.39625900       0.45894100
   112  C          0.85437150       0.89625900       0.04105900
   113  C          0.78378140       0.68641900       0.55398800
   114  C          0.21621860       0.18641900       0.94601200
   115  C          0.21621860       0.31358100       0.44601200
   116  C          0.78378140       0.81358100       0.05398800
   117  C          0.66822140       0.67833900       0.58267900
   118  C          0.33177860       0.17833900       0.91732100
   119  C          0.33177860       0.32166100       0.41732100
   120  C          0.66822140       0.82166100       0.08267900
   121  C          0.82120860       0.37558900       0.79672800
   122  C          0.17879140       0.87558900       0.70327200
   123  C          0.17879140       0.62441100       0.20327200
   124  C          0.82120860       0.12441100       0.29672800
   125  C          0.62742840       0.32967110       0.83845110
   126  C          0.37257160       0.82967110       0.66154890
   127  C          0.37257160       0.67032890       0.16154890
   128  C          0.62742840       0.17032890       0.33845110
   129  C          0.82808140       0.78547900       0.53845800
   130  C          0.17191860       0.28547900       0.96154200
   131  C          0.17191860       0.21452100       0.46154200
   132  C          0.82808140       0.71452100       0.03845800
   133  C          0.97738170       0.87936100       0.48654110
   134  C          0.02261830       0.37936100       0.01345890
   135  C          0.02261830       0.12063900       0.51345890
   136  C          0.97738170       0.62063900       0.98654110
   137  H          0.00030000       0.47700000       0.74890000
   138  H         -0.00030000       0.97700000       0.75110000
   139  H         -0.00030000       0.52300000       0.25110000
   140  H          0.00030000       0.02300000       0.24890000
   141  H          0.90930000       0.19710000       0.77010000
   142  H          0.09070000       0.69710000       0.72990000
   143  H          0.09070000       0.80290000       0.22990000
   144  H          0.90930000       0.30290000       0.27010000
   145  H          0.09530000       0.15230000       0.72420000
   146  H          0.90470000       0.65230000       0.77580000
   147  H          0.90470000       0.84770000       0.27580000
   148  H          0.09530000       0.34770000       0.22420000
   149  H          0.40590000       0.04750000       0.64840000
   150  H          0.59410000       0.54750000       0.85160000
   151  H          0.59410000       0.95250000       0.35160000
   152  H          0.40590000       0.45250000       0.14840000
   153  H          0.56800000       0.95790000       0.60760000
   154  H          0.43200000       0.45790000       0.89240000
   155  H          0.43200000       0.04210000       0.39240000
   156  H          0.56800000       0.54210000       0.10760000
   157  H          0.74330000       0.03470000       0.56750000
   158  H          0.25670000       0.53470000       0.93250000
   159  H          0.25670000       0.96530000       0.43250000
   160  H          0.74330000       0.46530000       0.06750000
   161  H          0.75520000       0.20090000       0.56810000
   162  H          0.24480000       0.70090000       0.93190000
   163  H          0.24480000       0.79910000       0.43190000
   164  H          0.75520000       0.29910000       0.06810000
   165  H          0.85470000       0.45850000       0.54770000
   166  H          0.14530000       0.95850000       0.95230000
   167  H          0.14530000       0.54150000       0.45230000
   168  H          0.85470000       0.04150000       0.04770000
   169  H          0.93240000       0.60930000       0.52220000
   170  H          0.06760000       0.10930000       0.97780000
   171  H          0.06760000       0.39070000       0.47780000
   172  H          0.93240000       0.89070000       0.02220000
   173  H          0.62240000       0.73370000       0.59160000
   174  H          0.37760000       0.23370000       0.90840000
   175  H          0.37760000       0.26630000       0.40840000
   176  H          0.62240000       0.76630000       0.09160000
   177  H          0.65740000       0.36690000       0.89070000
   178  H          0.34260000       0.86690000       0.60930000
   179  H          0.34260000       0.63310000       0.10930000
   180  H          0.65740000       0.13310000       0.39070000
   181  H          0.58080000       0.27270000       0.84880000
   182  H          0.41920000       0.77270000       0.65120000
   183  H          0.41920000       0.72730000       0.15120000
   184  H          0.58080000       0.22730000       0.34880000
   185  H          0.56540000       0.36750000       0.79390000
   186  H          0.43460000       0.86750000       0.70610000
   187  H          0.43460000       0.63250000       0.20610000
   188  H          0.56540000       0.13250000       0.29390000
   189  H          0.05430000       0.87350000       0.46360000
   190  H          0.94570000       0.37350000       0.03640000
   191  H          0.94570000       0.12650000       0.53640000
   192  H          0.05430000       0.62650000       0.96360000
   193  H          0.00310000       0.91910000       0.53740000
   194  H         -0.00310000       0.41910000       0.96260000
   195  H         -0.00310000       0.08090000       0.46260000
   196  H          0.00310000       0.58090000       0.03740000
   197  H          0.90080000       0.90830000       0.44390000
   198  H          0.09920000       0.40830000       0.05610000
   199  H          0.09920000       0.09170000       0.55610000
   200  H          0.90080000       0.59170000       0.94390000
