data_PAMVIK
_symmetry_space_group_name_H-M    'P1'
_symmetry_Int_Tables_number       1
loop_
_symmetry_equiv_pos_site_id
_symmetry_equiv_pos_as_xyz
1 x,y,z
_cell_length_a                   11.50942
_cell_length_b                   8.9222416
_cell_length_c                   21.91314
_cell_angle_alpha                90.0
_cell_angle_beta                 102.47109
_cell_angle_gamma                90.0
loop_
_atom_site_label
_atom_site_type_symbol
_atom_site_fract_x
_atom_site_fract_y
_atom_site_fract_z
     1  O          0.46432140       0.01155170       0.21758700
     2  O          0.53567860       0.51155170       0.28241300
     3  O          0.53567860      -0.01155170       0.78241300
     4  O          0.46432140       0.48844830       0.71758700
     5  O          0.51932140       0.89634830       0.13730700
     6  O          0.48067860       0.39634830       0.36269300
     7  O          0.48067860       0.10365170       0.86269300
     8  O          0.51932140       0.60365170       0.63730700
     9  O          0.04233160       0.37479180       0.21765700
    10  O          0.95766840       0.87479180       0.28234300
    11  O          0.95766840       0.62520820       0.78234300
    12  O          0.04233160       0.12520820       0.71765700
    13  O          0.97372860       0.52298170       0.13506700
    14  O          0.02627140       0.02298170       0.36493300
    15  O          0.02627140       0.47701830       0.86493300
    16  O          0.97372860       0.97701830       0.63506700
    17  C          0.13205170       0.04973000       0.09496900
    18  C          0.86794830       0.54973000       0.40503100
    19  C          0.86794830       0.95027000       0.90503100
    20  C          0.13205170       0.45027000       0.59496900
    21  C          0.17479190       0.90353000       0.11418900
    22  C          0.82520810       0.40353000       0.38581100
    23  C          0.82520810       0.09647000       0.88581100
    24  C          0.17479190       0.59647000       0.61418900
    25  C          0.21330190       0.77923000       0.12197100
    26  C          0.78669810       0.27923000       0.37802900
    27  C          0.78669810       0.22077000       0.87802900
    28  C          0.21330190       0.72077000       0.62197100
    29  C          0.26122000       0.63803000       0.12353900
    30  C          0.73878000       0.13803000       0.37646100
    31  C          0.73878000       0.36197000       0.87646100
    32  C          0.26122000       0.86197000       0.62353900
    33  C          0.30466190       0.51823000       0.11791100
    34  C          0.69533810       0.01823000       0.38208900
    35  C          0.69533810       0.48177000       0.88208900
    36  C          0.30466190       0.98177000       0.61791100
    37  C          0.35530180       0.38443000       0.09923100
    38  C          0.64469820       0.88443000       0.40076900
    39  C          0.64469820       0.61557000       0.90076900
    40  C          0.35530180       0.11557000       0.59923100
    41  C          0.39005170       0.26433000       0.13962100
    42  C          0.60994830       0.76433000       0.36037900
    43  C          0.60994830       0.73567000       0.86037900
    44  C          0.39005170       0.23567000       0.63962100
    45  C          0.43620180       0.13593000       0.11873900
    46  C          0.56379820       0.63593000       0.38126100
    47  C          0.56379820       0.86407000       0.88126100
    48  C          0.43620180       0.36407000       0.61873900
    49  C          0.44862190       0.12703000       0.05726100
    50  C          0.55137810       0.62703000       0.44273900
    51  C          0.55137810       0.87297000       0.94273900
    52  C          0.44862190       0.37297000       0.55726100
    53  C          0.41549190       0.24553000       0.01661100
    54  C          0.58450810       0.74553000       0.48338900
    55  C          0.58450810       0.75447000       0.98338900
    56  C          0.41549190       0.25447000       0.51661100
    57  C          0.36823170       0.37623000       0.03652100
    58  C          0.63176830       0.87623000       0.46347900
    59  C          0.63176830       0.62377000       0.96347900
    60  C          0.36823170       0.12377000       0.53652100
    61  C          0.33239180       0.49703000      -0.00644100
    62  C          0.66760820      -0.00297000       0.50644100
    63  C          0.66760820       0.50297000       0.00644100
    64  C          0.33239180       0.00297000       0.49355900
    65  C          0.30384180       0.59513000       0.95576900
    66  C          0.69615820       0.09513000       0.54423100
    67  C          0.69615820       0.40487000       0.04423100
    68  C          0.30384180       0.90487000       0.45576900
    69  C          0.28024170       0.69203000       0.90219100
    70  C          0.71975830       0.19203000       0.59780900
    71  C          0.71975830       0.30797000       0.09780900
    72  C          0.28024170       0.80797000       0.40219100
    73  C          0.30946180       0.63563000       0.84785900
    74  C          0.69053820       0.13563000       0.65214100
    75  C          0.69053820       0.36437000       0.15214100
    76  C          0.30946180       0.86437000       0.34785900
    77  C          0.29117190       0.71653000       0.79339900
    78  C          0.70882810       0.21653000       0.70660100
    79  C          0.70882810       0.28347000       0.20660100
    80  C          0.29117190       0.78347000       0.29339900
    81  C          0.24260190       0.85843000       0.79150900
    82  C          0.75739810       0.35843000       0.70849100
    83  C          0.75739810       0.14157000       0.20849100
    84  C          0.24260190       0.64157000       0.29150900
    85  C          0.21228180       0.91763000       0.84412100
    86  C          0.78771820       0.41763000       0.65587900
    87  C          0.78771820       0.08237000       0.15587900
    88  C          0.21228180       0.58237000       0.34412100
    89  C          0.23172170       0.83753000       0.90056100
    90  C          0.76827830       0.33753000       0.59943900
    91  C          0.76827830       0.16247000       0.09943900
    92  C          0.23172170       0.66247000       0.40056100
    93  C          0.19940170       0.91193000       0.95252100
    94  C          0.80059830       0.41193000       0.54747900
    95  C          0.80059830       0.08807000       0.04747900
    96  C          0.19940170       0.58807000       0.45252100
    97  C          0.16732170      -0.00747000       0.98952900
    98  C          0.83267830       0.49253000       0.51047100
    99  C          0.83267830       0.00747000       0.01047100
   100  C          0.16732170       0.50747000       0.48952900
   101  C          0.12745170       0.09223000       0.03208900
   102  C          0.87254830       0.59223000       0.46791100
   103  C          0.87254830       0.90777000       0.96791100
   104  C          0.12745170       0.40777000       0.53208900
   105  C          0.08416190       0.23473000       0.01286100
   106  C          0.91583810       0.73473000       0.48713900
   107  C          0.91583810       0.76527000       0.98713900
   108  C          0.08416190       0.26527000       0.51286100
   109  C          0.04855190       0.33183000       0.05397100
   110  C          0.95144810       0.83183000       0.44602900
   111  C          0.95144810       0.66817000       0.94602900
   112  C          0.04855190       0.16817000       0.55397100
   113  C          0.05580170       0.29163000       0.11596900
   114  C          0.94419830       0.79163000       0.38403100
   115  C          0.94419830       0.70837000       0.88403100
   116  C          0.05580170       0.20837000       0.61596900
   117  C          0.09699170       0.15043000       0.13611900
   118  C          0.90300830       0.65043000       0.36388100
   119  C          0.90300830       0.84957000       0.86388100
   120  C          0.09699170       0.34957000       0.63611900
   121  C          0.47363190       0.01143000       0.16397100
   122  C          0.52636810       0.51143000       0.33602900
   123  C          0.52636810      -0.01143000       0.83602900
   124  C          0.47363190       0.48857000       0.66397100
   125  C          0.56373000       0.77247000       0.17788130
   126  C          0.43627000       0.27247000       0.32211870
   127  C          0.43627000       0.22753000       0.82211870
   128  C          0.56373000       0.72753000       0.67788130
   129  C          0.02411190       0.39793000       0.16232100
   130  C          0.97588810       0.89793000       0.33767900
   131  C          0.97588810       0.60207000       0.83767900
   132  C          0.02411190       0.10207000       0.66232100
   133  C          0.94067000       0.63453000       0.17629120
   134  C          0.05933000       0.13453000       0.32370880
   135  C          0.05933000       0.36547000       0.82370880
   136  C          0.94067000       0.86547000       0.67629120
   137  H          0.38210000       0.27060000       0.18130000
   138  H          0.61790000       0.77060000       0.31870000
   139  H          0.61790000       0.72940000       0.81870000
   140  H          0.38210000       0.22940000       0.68130000
   141  H          0.47990000       0.03950000       0.04310000
   142  H          0.52010000       0.53950000       0.45690000
   143  H          0.52010000       0.96050000       0.95690000
   144  H          0.47990000       0.46050000       0.54310000
   145  H          0.42490000       0.23800000       0.97520000
   146  H          0.57510000       0.73800000       0.52480000
   147  H          0.57510000       0.76200000       0.02480000
   148  H          0.42490000       0.26200000       0.47520000
   149  H          0.34270000       0.53920000       0.84870000
   150  H          0.65730000       0.03920000       0.65130000
   151  H          0.65730000       0.46080000       0.15130000
   152  H          0.34270000       0.96080000       0.34870000
   153  H          0.31160000       0.67570000       0.75760000
   154  H          0.68840000       0.17570000       0.74240000
   155  H          0.68840000       0.32430000       0.24240000
   156  H          0.31160000       0.82430000       0.25760000
   157  H          0.23020000       0.91460000       0.75440000
   158  H          0.76980000       0.41460000       0.74560000
   159  H          0.76980000       0.08540000       0.24560000
   160  H          0.23020000       0.58540000       0.25440000
   161  H          0.17790000       0.01350000       0.84210000
   162  H          0.82210000       0.51350000       0.65790000
   163  H          0.82210000      -0.01350000       0.15790000
   164  H          0.17790000       0.48650000       0.34210000
   165  H          0.07930000       0.26460000       0.97130000
   166  H          0.92070000       0.76460000       0.52870000
   167  H          0.92070000       0.73540000       0.02870000
   168  H          0.07930000       0.23540000       0.47130000
   169  H          0.01890000       0.42680000       0.03990000
   170  H          0.98110000       0.92680000       0.46010000
   171  H          0.98110000       0.57320000       0.96010000
   172  H          0.01890000       0.07320000       0.53990000
   173  H          0.10130000       0.12220000       0.17790000
   174  H          0.89870000       0.62220000       0.32210000
   175  H          0.89870000       0.87780000       0.82210000
   176  H          0.10130000       0.37780000       0.67790000
   177  H          0.59460000       0.69590000       0.15430000
   178  H          0.40540000       0.19590000       0.34570000
   179  H          0.40540000       0.30410000       0.84570000
   180  H          0.59460000       0.80410000       0.65430000
   181  H          0.49970000       0.73100000       0.19500000
   182  H          0.50030000       0.23100000       0.30500000
   183  H          0.50030000       0.26900000       0.80500000
   184  H          0.49970000       0.76900000       0.69500000
   185  H          0.62690000       0.80740000       0.21170000
   186  H          0.37310000       0.30740000       0.28830000
   187  H          0.37310000       0.19260000       0.78830000
   188  H          0.62690000       0.69260000       0.71170000
   189  H          0.90520000       0.72010000       0.15190000
   190  H          0.09480000       0.22010000       0.34810000
   191  H          0.09480000       0.27990000       0.84810000
   192  H          0.90520000       0.77990000       0.65190000
   193  H          0.01100000       0.66650000       0.20640000
   194  H         -0.01100000       0.16650000       0.29360000
   195  H         -0.01100000       0.33350000       0.79360000
   196  H          0.01100000       0.83350000       0.70640000
   197  H          0.88370000       0.59160000       0.19810000
   198  H          0.11630000       0.09160000       0.30190000
   199  H          0.11630000       0.40840000       0.80190000
   200  H          0.88370000       0.90840000       0.69810000
