data_PAMVIK02
_symmetry_space_group_name_H-M    'P1'
_symmetry_Int_Tables_number       1
loop_
_symmetry_equiv_pos_site_id
_symmetry_equiv_pos_as_xyz
1 x,y,z
_cell_length_a                   25.9914
_cell_length_b                   3.87103
_cell_length_c                   21.3524
_cell_angle_alpha                90.0
_cell_angle_beta                 100.5227
_cell_angle_gamma                90.0
loop_
_atom_site_label
_atom_site_type_symbol
_atom_site_fract_x
_atom_site_fract_y
_atom_site_fract_z
     1  O          0.45142000       0.23881400       0.45373000
     2  O          0.54858000       0.73881400       0.04627000
     3  O          0.54858000       0.76118600       0.54627000
     4  O          0.45142000       0.26118600       0.95373000
     5  O          0.42222000       0.93378400       0.36503000
     6  O          0.57778000       0.43378400       0.13497000
     7  O          0.57778000       0.06621600       0.63497000
     8  O          0.42222000       0.56621600       0.86503000
     9  O          0.93482000       0.21261300       0.68002000
    10  O          0.06518000       0.71261300       0.81998000
    11  O          0.06518000       0.78738700       0.31998000
    12  O          0.93482000       0.28738700       0.18002000
    13  O          0.00452000       0.11331500       0.63213000
    14  O         -0.00452000       0.61331500       0.86787000
    15  O         -0.00452000       0.88668500       0.36787000
    16  O          0.00452000       0.38668500       0.13213000
    17  C          0.83763000       0.76501800       0.51774000
    18  C          0.16237000       0.26501800       0.98226000
    19  C          0.16237000       0.23498200       0.48226000
    20  C          0.83763000       0.73498200       0.01774000
    21  C          0.78253000       0.73131800       0.51024000
    22  C          0.21747000       0.23131800       0.98976000
    23  C          0.21747000       0.26868200       0.48976000
    24  C          0.78253000       0.76868200       0.01024000
    25  C          0.73693000       0.65620000       0.49544000
    26  C          0.26307000       0.15620000       0.00456000
    27  C          0.26307000       0.34380000       0.50456000
    28  C          0.73693000       0.84380000      -0.00456000
    29  C          0.68723000       0.54220000       0.47285000
    30  C          0.31277000       0.04220000       0.02715000
    31  C          0.31277000       0.45780000       0.52715000
    32  C          0.68723000       0.95780000       0.97285000
    33  C          0.64613000       0.43120000       0.44694000
    34  C          0.35387000       0.93120000       0.05306000
    35  C          0.35387000       0.56880000       0.55306000
    36  C          0.64613000       0.06880000       0.94694000
    37  C          0.60183000       0.26871900       0.40704000
    38  C          0.39817000       0.76871900       0.09296000
    39  C          0.39817000       0.73128100       0.59296000
    40  C          0.60183000       0.23128100       0.90704000
    41  C          0.55233000       0.25701800       0.42394000
    42  C          0.44767000       0.75701800       0.07606000
    43  C          0.44767000       0.74298200       0.57606000
    44  C          0.55233000       0.24298200       0.92394000
    45  C          0.51073000       0.10920000       0.38425000
    46  C          0.48927000       0.60920000       0.11575000
    47  C          0.48927000       0.89080000       0.61575000
    48  C          0.51073000       0.39080000       0.88425000
    49  C          0.51763000      -0.03120000       0.32584000
    50  C          0.48237000       0.46880000       0.17416000
    51  C          0.48237000       0.03120000       0.67416000
    52  C          0.51763000       0.53120000       0.82584000
    53  C          0.56703000      -0.02520000       0.31005000
    54  C          0.43297000       0.47480000       0.18995000
    55  C          0.43297000       0.02520000       0.68995000
    56  C          0.56703000       0.52520000       0.81005000
    57  C          0.60903000       0.12120000       0.34884000
    58  C          0.39097000       0.62120000       0.15116000
    59  C          0.39097000       0.87880000       0.65116000
    60  C          0.60903000       0.37880000       0.84884000
    61  C          0.65973000       0.12120000       0.33094000
    62  C          0.34027000       0.62120000       0.16906000
    63  C          0.34027000       0.87880000       0.66906000
    64  C          0.65973000       0.37880000       0.83094000
    65  C          0.70043000       0.11220000       0.31294000
    66  C          0.29957000       0.61220000       0.18706000
    67  C          0.29957000       0.88780000       0.68706000
    68  C          0.70043000       0.38780000       0.81294000
    69  C          0.74433000       0.07020000       0.27924000
    70  C          0.25567000       0.57020000       0.22076000
    71  C          0.25567000       0.92980000       0.72076000
    72  C          0.74433000       0.42980000       0.77924000
    73  C          0.73313000       0.90880000       0.21994000
    74  C          0.26687000       0.40880000       0.28006000
    75  C          0.26687000       0.09120000       0.78006000
    76  C          0.73313000       0.59120000       0.71994000
    77  C          0.77063000       0.86780000       0.18355000
    78  C          0.22937000       0.36780000       0.31645000
    79  C          0.22937000       0.13220000       0.81645000
    80  C          0.77063000       0.63220000       0.68355000
    81  C          0.82053000      -0.00820000       0.20464000
    82  C          0.17947000       0.49180000       0.29536000
    83  C          0.17947000       0.00820000       0.79536000
    84  C          0.82053000       0.50820000       0.70464000
    85  C          0.83213000       0.15620000       0.26264000
    86  C          0.16787000       0.65620000       0.23736000
    87  C          0.16787000       0.84380000       0.73736000
    88  C          0.83213000       0.34380000       0.76264000
    89  C          0.79493000       0.20020000       0.30254000
    90  C          0.20507000       0.70020000       0.19746000
    91  C          0.20507000       0.79980000       0.69746000
    92  C          0.79493000       0.29980000       0.80254000
    93  C          0.81173000       0.35320000       0.36214000
    94  C          0.18827000       0.85320000       0.13786000
    95  C          0.18827000       0.64680000       0.63786000
    96  C          0.81173000       0.14680000       0.86214000
    97  C          0.83323000       0.48420000       0.41104000
    98  C          0.16677000      -0.01580000       0.08896000
    99  C          0.16677000       0.51580000       0.58896000
   100  C          0.83323000       0.01580000       0.91104000
   101  C          0.86283000       0.63820000       0.46814000
   102  C          0.13717000       0.13820000       0.03186000
   103  C          0.13717000       0.36180000       0.53186000
   104  C          0.86283000       0.86180000       0.96814000
   105  C          0.91623000       0.66520000       0.47674000
   106  C          0.08377000       0.16520000       0.02326000
   107  C          0.08377000       0.33480000       0.52326000
   108  C          0.91623000       0.83480000       0.97674000
   109  C          0.94673000       0.79620000       0.52904000
   110  C          0.05327000       0.29620000       0.97096000
   111  C          0.05327000       0.20380000       0.47096000
   112  C          0.94673000       0.70380000       0.02904000
   113  C          0.92182000       0.93431900       0.57684000
   114  C          0.07818000       0.43431900       0.92316000
   115  C          0.07818000       0.06568100       0.42316000
   116  C          0.92182000       0.56568100       0.07684000
   117  C          0.86913000       0.91720000       0.57004000
   118  C          0.13087000       0.41720000       0.92996000
   119  C          0.13087000       0.08280000       0.42996000
   120  C          0.86913000       0.58280000       0.07004000
   121  C          0.45923000       0.10320000       0.40505000
   122  C          0.54077000       0.60320000       0.09495000
   123  C          0.54077000       0.89680000       0.59495000
   124  C          0.45923000       0.39680000       0.90505000
   125  C          0.37343000       0.90080000       0.38615000
   126  C          0.62657000       0.40080000       0.11385000
   127  C          0.62657000       0.09920000       0.61385000
   128  C          0.37343000       0.59920000       0.88615000
   129  C          0.95353000       0.09620000       0.63434000
   130  C          0.04647000       0.59620000       0.86566000
   131  C          0.04647000       0.90380000       0.36566000
   132  C          0.95353000       0.40380000       0.13434000
   133  C          0.03733000       0.25820000       0.68674000
   134  C          0.96267000       0.75820000       0.81326000
   135  C          0.96267000       0.74180000       0.31326000
   136  C          0.03733000       0.24180000       0.18674000
   137  H          0.54750000       0.35240000       0.46350000
   138  H          0.45250000       0.85240000       0.03650000
   139  H          0.45250000       0.64760000       0.53650000
   140  H          0.54750000       0.14760000       0.96350000
   141  H          0.48890000       0.87100000       0.29750000
   142  H          0.51110000       0.37100000       0.20250000
   143  H          0.51110000       0.12900000       0.70250000
   144  H          0.48890000       0.62900000       0.79750000
   145  H          0.57180000       0.87500000       0.27090000
   146  H          0.42820000       0.37500000       0.22910000
   147  H          0.42820000       0.12500000       0.72910000
   148  H          0.57180000       0.62500000       0.77090000
   149  H          0.37630000       0.72270000       0.41910000
   150  H          0.62370000       0.22270000       0.08090000
   151  H          0.62370000       0.27730000       0.58090000
   152  H          0.37630000       0.77730000       0.91910000
   153  H          0.34610000       0.83620000       0.35000000
   154  H          0.65390000       0.33620000       0.15000000
   155  H          0.65390000       0.16380000       0.65000000
   156  H          0.34610000       0.66380000       0.85000000
   157  H          0.36430000       0.12220000       0.40360000
   158  H          0.63570000       0.62220000       0.09640000
   159  H          0.63570000       0.87780000       0.59640000
   160  H          0.36430000       0.37780000       0.90360000
   161  H          0.69870000       0.82630000       0.20450000
   162  H          0.30130000       0.32630000       0.29550000
   163  H          0.30130000       0.17370000       0.79550000
   164  H          0.69870000       0.67370000       0.70450000
   165  H          0.76240000       0.75320000       0.14360000
   166  H          0.23760000       0.25320000       0.35640000
   167  H          0.23760000       0.24680000       0.85640000
   168  H          0.76240000       0.74680000       0.64360000
   169  H          0.84670000      -0.03470000       0.17920000
   170  H          0.15330000       0.46530000       0.32080000
   171  H          0.15330000       0.03470000       0.82080000
   172  H          0.84670000       0.53470000       0.67920000
   173  H          0.86650000       0.24280000       0.27630000
   174  H          0.13350000       0.74280000       0.22370000
   175  H          0.13350000       0.75720000       0.72370000
   176  H          0.86650000       0.25720000       0.77630000
   177  H          0.93280000       0.58590000       0.44340000
   178  H          0.06720000       0.08590000       0.05660000
   179  H          0.06720000       0.41410000       0.55660000
   180  H          0.93280000       0.91410000       0.94340000
   181  H          0.98370000       0.79500000       0.53350000
   182  H          0.01630000       0.29500000       0.96650000
   183  H          0.01630000       0.20500000       0.46650000
   184  H          0.98370000       0.70500000       0.03350000
   185  H          0.85290000       0.01370000       0.60250000
   186  H          0.14710000       0.51370000       0.89750000
   187  H          0.14710000      -0.01370000       0.39750000
   188  H          0.85290000       0.48630000       0.10250000
   189  H          0.02470000       0.48930000       0.69490000
   190  H          0.97530000      -0.01070000       0.80510000
   191  H          0.97530000       0.51070000       0.30510000
   192  H          0.02470000       0.01070000       0.19490000
   193  H          0.07330000       0.27450000       0.67900000
   194  H          0.92670000       0.77450000       0.82100000
   195  H          0.92670000       0.72550000       0.32100000
   196  H          0.07330000       0.22550000       0.17900000
   197  H          0.03670000       0.11020000       0.72380000
   198  H          0.96330000       0.61020000       0.77620000
   199  H          0.96330000       0.88980000       0.27620000
   200  H          0.03670000       0.38980000       0.22380000
