data_PAMVIK04
_symmetry_space_group_name_H-M    'P1'
_symmetry_Int_Tables_number       1
loop_
_symmetry_equiv_pos_site_id
_symmetry_equiv_pos_as_xyz
1 x,y,z
_cell_length_a                   9.8812518
_cell_length_b                   10.1211518
_cell_length_c                   22.18554
_cell_angle_alpha                95.30509
_cell_angle_beta                 93.75009
_cell_angle_gamma                91.77101
loop_
_atom_site_label
_atom_site_type_symbol
_atom_site_fract_x
_atom_site_fract_y
_atom_site_fract_z
     1  O          0.17582000       0.48342000       0.30478120
     2  O          0.82418000       0.51658000       0.69521880
     3  O          0.30072000       0.67332000       0.31399110
     4  O          0.69928000       0.32668000       0.68600890
     5  O          0.48162000       0.32198000       0.06311110
     6  O          0.51838000       0.67802000       0.93688890
     7  O          0.66662000       0.26408000       0.01406100
     8  O          0.33338000       0.73592000       0.98593900
     9  C          0.64073000       0.71477000       0.09657150
    10  C          0.35927000       0.28523000       0.90342850
    11  C          0.57133000       0.81727000       0.12887160
    12  C          0.42867000       0.18273000       0.87112840
    13  C          0.52833000       0.91607000       0.15258170
    14  C          0.47167000       0.08393000       0.84741830
    15  C          0.49443000       0.04044000       0.17722160
    16  C          0.50557000       0.95956000       0.82277840
    17  C          0.48173000       0.15254000       0.19594170
    18  C          0.51827000       0.84746000       0.80405830
    19  C          0.48893000       0.29113000       0.21612150
    20  C          0.51107000       0.70887000       0.78387850
    21  C          0.38293000       0.35193000       0.24515150
    22  C          0.61707000       0.64807000       0.75484850
    23  C          0.39363000       0.48673000       0.26402150
    24  C          0.60637000       0.51327000       0.73597850
    25  C          0.50993000       0.55983000       0.25471150
    26  C          0.49007000       0.44017000       0.74528850
    27  C          0.61613000       0.50083000       0.22692140
    28  C          0.38387000       0.49917000       0.77307860
    29  C          0.60823000       0.36573000       0.20709150
    30  C          0.39177000       0.63427000       0.79290850
    31  C          0.71873000       0.30453000       0.17827160
    32  C          0.28127000       0.69547000       0.82172840
    33  C          0.81363000       0.25683000       0.15424150
    34  C          0.18637000       0.74317000       0.84575850
    35  C          0.93993000       0.22683000       0.12884150
    36  C          0.06007000       0.77317000       0.87115850
    37  C          0.03983000       0.32893000       0.13339160
    38  C          0.96017000       0.67107000       0.86660840
    39  C          0.16553000       0.30813000       0.11202150
    40  C          0.83447000       0.69187000       0.88797850
    41  C          0.19543000       0.18523000       0.08465160
    42  C          0.80457000       0.81477000       0.91534840
    43  C          0.09913000       0.08353000       0.07878150
    44  C          0.90087000       0.91647000       0.92121850
    45  C          0.97123000       0.10093000       0.10049150
    46  C          0.02877000       0.89907000       0.89950850
    47  C          0.88143000      -0.01493000       0.09412160
    48  C          0.11857000       0.01493000       0.90587840
    49  C          0.82683000       0.87696000       0.08523160
    50  C          0.17317000       0.12304000       0.91476840
    51  C          0.76703000       0.74487000       0.07534160
    52  C          0.23297000       0.25513000       0.92465840
    53  C          0.83633000       0.64527000       0.04318160
    54  C          0.16367000       0.35473000       0.95681840
    55  C          0.78103000       0.51657000       0.03283150
    56  C          0.21897000       0.48343000       0.96716850
    57  C          0.65573000       0.48667000       0.05426150
    58  C          0.34427000       0.51333000       0.94573850
    59  C          0.58633000       0.58457000       0.08545140
    60  C          0.41367000       0.41543000       0.91454860
    61  C          0.27864000       0.54344000       0.29561170
    62  C          0.72136000       0.45656000       0.70438830
    63  C          0.19353000       0.73563000       0.34576160
    64  C          0.80647000       0.26437000       0.65423840
    65  C          0.58993000       0.35107000       0.04503160
    66  C          0.41007000       0.64893000       0.95496840
    67  C          0.61343000       0.12827000       0.00883160
    68  C          0.38657000       0.87173000       0.99116840
    69  H          0.30460000       0.30180000       0.25190000
    70  H          0.69540000       0.69820000       0.74810000
    71  H          0.51640000       0.65110000       0.26760000
    72  H          0.48360000       0.34890000       0.73240000
    73  H          0.69460000       0.55180000       0.22130000
    74  H          0.30540000       0.44820000       0.77870000
    75  H          0.02060000       0.41340000       0.15140000
    76  H          0.97940000       0.58660000       0.84860000
    77  H          0.23140000       0.37780000       0.11600000
    78  H          0.76860000       0.62220000       0.88400000
    79  H          0.28160000       0.17140000       0.07010000
    80  H          0.71840000       0.82860000       0.92990000
    81  H          0.11990000       0.00040000       0.05970000
    82  H          0.88010000      -0.00040000       0.94030000
    83  H          0.92080000       0.66580000       0.02850000
    84  H          0.07920000       0.33420000       0.97150000
    85  H          0.82810000       0.45020000       0.01140000
    86  H          0.17190000       0.54980000       0.98860000
    87  H          0.50120000       0.56350000       0.09940000
    88  H          0.49880000       0.43650000       0.90060000
    89  H          0.13000000       0.77160000       0.31690000
    90  H          0.87000000       0.22840000       0.68310000
    91  H          0.23170000       0.80680000       0.37480000
    92  H          0.76830000       0.19320000       0.62520000
    93  H          0.14640000       0.67040000       0.36700000
    94  H          0.85360000       0.32960000       0.63300000
    95  H          0.64890000       0.08430000       0.04320000
    96  H          0.35110000       0.91570000       0.95680000
    97  H          0.64050000       0.08190000       0.97160000
    98  H          0.35950000       0.91810000       0.02840000
    99  H          0.51510000       0.12790000       0.00820000
   100  H          0.48490000       0.87210000       0.99180000
   101  O          0.97918000       0.67178000       0.19512120
   102  O          0.02082000       0.32822000       0.80487880
   103  O          0.14992000       0.80718000       0.17436110
   104  O          0.85008000       0.19282000       0.82563890
   105  O          0.86888000       0.01892000       0.44405110
   106  O          0.13112000       0.98108000       0.55594890
   107  O          0.81648000       0.21692000       0.48834100
   108  O          0.18352000       0.78308000       0.51165900
   109  C          0.25287000       0.17423000       0.40966150
   110  C          0.74713000       0.82577000       0.59033850
   111  C          0.35267000       0.09543000       0.38074160
   112  C          0.64733000       0.90457000       0.61925840
   113  C          0.44517000       0.04583000       0.35684170
   114  C          0.55483000       0.95417000       0.64315830
   115  C          0.56107000       0.00593000       0.33056160
   116  C          0.43893000      -0.00593000       0.66943840
   117  C          0.66767000      -0.00893000       0.30961160
   118  C          0.33233000       0.00893000       0.69038840
   119  C          0.79967000      -0.00263000       0.28744150
   120  C          0.20033000       0.00263000       0.71255850
   121  C          0.85637000       0.88787000       0.25626150
   122  C          0.14363000       0.11213000       0.74373850
   123  C          0.98307000       0.89927000       0.23454160
   124  C          0.01693000       0.10073000       0.76545840
   125  C          0.05763000       0.01953000       0.24351150
   126  C          0.94237000       0.98047000       0.75648850
   127  C          0.00343000       0.12933000       0.27433150
   128  C         -0.00343000       0.87067000       0.72566850
   129  C          0.87417000       0.12013000       0.29567150
   130  C          0.12583000       0.87987000       0.70432850
   131  C          0.81867000       0.23603000       0.32558160
   132  C          0.18133000       0.76397000       0.67441840
   133  C          0.77677000       0.33683000       0.34915160
   134  C          0.22323000       0.66317000       0.65084840
   135  C          0.75067000       0.47073000       0.37277150
   136  C          0.24933000       0.52927000       0.62722850
   137  C          0.85377000       0.56603000       0.36762150
   138  C          0.14623000       0.43397000       0.63237850
   139  C          0.83667000       0.69853000       0.38670150
   140  C          0.16333000       0.30147000       0.61329850
   141  C          0.71657000       0.73823000       0.41104160
   142  C          0.28343000       0.26177000       0.58895840
   143  C          0.61697000       0.64503000       0.41675150
   144  C          0.38303000       0.35497000       0.58324850
   145  C          0.63067000       0.51073000       0.39784150
   146  C          0.36933000       0.48927000       0.60215850
   147  C          0.51697000       0.42313000       0.40493150
   148  C          0.48303000       0.57687000       0.59506850
   149  C          0.41167000       0.37093000       0.41370150
   150  C          0.58833000       0.62907000       0.58629850
   151  C          0.28247000       0.31193000       0.42463150
   152  C          0.71753000       0.68807000       0.57536850
   153  C          0.18347000       0.38913000       0.45125160
   154  C          0.81653000       0.61087000       0.54874840
   155  C          0.05947000       0.33403000       0.46251160
   156  C          0.94053000       0.66597000       0.53748840
   157  C          0.03107000       0.19793000       0.44859150
   158  C          0.96893000       0.80207000       0.55140850
   159  C          0.12687000       0.12143000       0.42213140
   160  C          0.87313000       0.87857000       0.57786860
   161  C          0.03493000       0.78036000       0.19986180
   162  C          0.96507000       0.21964000       0.80013820
   163  C          0.20673000       0.69757000       0.13970170
   164  C          0.79327000       0.30243000       0.86029830
   165  C          0.89987000       0.13424000       0.45912160
   166  C          0.10013000       0.86576000       0.54087840
   167  C          0.68047000       0.16393000       0.49330160
   168  C          0.31953000       0.83607000       0.50669840
   169  H          0.80740000       0.80610000       0.25020000
   170  H          0.19260000       0.19390000       0.74980000
   171  H          0.14440000       0.02630000       0.22880000
   172  H          0.85560000       0.97370000       0.77120000
   173  H          0.05410000       0.21010000       0.28080000
   174  H          0.94590000       0.78990000       0.71920000
   175  H          0.93520000       0.54010000       0.35110000
   176  H          0.06480000       0.45990000       0.64890000
   177  H          0.90670000       0.76180000       0.38320000
   178  H          0.09330000       0.23820000       0.61680000
   179  H          0.70430000       0.82820000       0.42340000
   180  H          0.29570000       0.17180000       0.57660000
   181  H          0.53660000       0.67170000       0.43390000
   182  H          0.46340000       0.32830000       0.56610000
   183  H          0.20180000       0.48030000       0.46170000
   184  H          0.79820000       0.51970000       0.53830000
   185  H         -0.00640000       0.38810000       0.47970000
   186  H          0.00640000       0.61190000       0.52030000
   187  H          0.10710000       0.03030000       0.41210000
   188  H          0.89290000       0.96970000       0.58790000
   189  H          0.26770000       0.65190000       0.16610000
   190  H          0.73230000       0.34810000       0.83390000
   191  H          0.25660000       0.73070000       0.10760000
   192  H          0.74340000       0.26930000       0.89240000
   193  H          0.13430000       0.63650000       0.12200000
   194  H          0.86570000       0.36350000       0.87800000
   195  H          0.62300000       0.18320000       0.45830000
   196  H          0.37700000       0.81680000       0.54170000
   197  H          0.64460000       0.20430000       0.53000000
   198  H          0.35540000       0.79570000       0.47000000
   199  H          0.68270000       0.06850000       0.49490000
   200  H          0.31730000       0.93150000       0.50510000
