data_PASXIS03
_symmetry_space_group_name_H-M    'P1'
_symmetry_Int_Tables_number       1
loop_
_symmetry_equiv_pos_site_id
_symmetry_equiv_pos_as_xyz
1 x,y,z
_cell_length_a                   6.5164
_cell_length_b                   12.0373
_cell_length_c                   6.7923
_cell_angle_alpha                90.0
_cell_angle_beta                 113.065
_cell_angle_gamma                90.0
loop_
_atom_site_label
_atom_site_type_symbol
_atom_site_fract_x
_atom_site_fract_y
_atom_site_fract_z
     1  Br         0.21897000       0.38588800       0.84313000
     2  Br         0.78103000       0.88588800       0.15687000
     3  N          0.77340000       0.43829000       0.17330000
     4  N          0.22660000       0.93829000       0.82670000
     5  H          0.67010000       0.38290000       0.13420000
     6  H          0.32990000       0.88290000       0.86580000
     7  N          0.05950000       0.58447000       0.28220000
     8  N          0.94050000       0.08447000       0.71780000
     9  H          0.16280000       0.63950000       0.31970000
    10  H          0.83720000       0.13950000       0.68030000
    11  C          0.75130000       0.50329000       0.97270000
    12  C          0.24870000       0.00329000       0.02730000
    13  H          0.78770000       0.45610000       0.87460000
    14  H          0.21230000       0.95610000       0.12540000
    15  H          0.60150000       0.53110000       0.90030000
    16  H          0.39850000       0.03110000       0.09970000
    17  C          0.91240000       0.59661100       0.04730000
    18  C          0.08760000       0.09661100       0.95270000
    19  H          0.83210000       0.66630000       0.02340000
    20  H          0.16790000       0.16630000       0.97660000
    21  H          0.00570000       0.59800000       0.96480000
    22  H         -0.00570000       0.09800000       0.03520000
    23  C          0.01270000       0.38441200       0.27430000
    24  C         -0.01270000       0.88441200       0.72570000
    25  H          0.02750000       0.34370000       0.40270000
    26  H         -0.02750000       0.84370000       0.59730000
    27  H          0.03240000       0.33300000       0.17380000
    28  H          0.96760000       0.83300000       0.82620000
    29  C          0.17990000       0.47321000       0.32740000
    30  C          0.82010000       0.97321000       0.67260000
    31  H          0.26700000       0.46560000       0.24110000
    32  H          0.73300000       0.96560000       0.75890000
    33  H          0.27870000       0.46860000       0.47680000
    34  H          0.72130000       0.96860000       0.52320000
    35  C          0.72830000       0.51339000       0.32830000
    36  C          0.27170000       0.01339000       0.67170000
    37  H          0.72370000       0.47050000       0.44750000
    38  H          0.27630000       0.97050000       0.55250000
    39  H          0.58710000       0.55090000       0.25860000
    40  H          0.41290000       0.05090000       0.74140000
    41  C          0.91840000       0.59799000       0.40830000
    42  C          0.08160000       0.09799000       0.59170000
    43  H          0.85910000       0.67270000       0.39060000
    44  H          0.14090000       0.17270000       0.60940000
    45  H          0.00870000       0.58590000       0.55870000
    46  H         -0.00870000       0.08590000       0.44130000
    47  Br         0.52128000       0.23213800       0.42463000
    48  Br         0.47872000       0.73213800       0.57537000
    49  O          0.65270000       0.20778000      -0.01770000
    50  O          0.34730000       0.70778000       0.01770000
    51  H          0.62600000       0.23890000       0.84919000
    52  H          0.37400000       0.73890000       0.15081000
    53  H          0.55300000       0.18311000       0.03300000
    54  H          0.44700000       0.68311000       0.96700000
