data_PASXIS02
_symmetry_space_group_name_H-M    'P1'
_symmetry_Int_Tables_number       1
loop_
_symmetry_equiv_pos_site_id
_symmetry_equiv_pos_as_xyz
1 x,y,z
_cell_length_a                   7.284419
_cell_length_b                   10.9184
_cell_length_c                   5.6634
_cell_angle_alpha                90.0
_cell_angle_beta                 90.0
_cell_angle_gamma                90.0
loop_
_atom_site_label
_atom_site_type_symbol
_atom_site_fract_x
_atom_site_fract_y
_atom_site_fract_z
     1  Br         0.25000000       0.56635800       0.59453000
     2  Br         0.25000000       0.93364200       0.59453000
     3  Br         0.75000000       0.06635800       0.40547000
     4  Br         0.75000000       0.43364200       0.40547000
     5  N          0.07941000       0.25000000       0.18230000
     6  N          0.42059000       0.25000000       0.18230000
     7  N          0.92059000       0.75000000       0.81770000
     8  N          0.57941000       0.75000000       0.81770000
     9  H          0.95450000       0.25000000       0.18390000
    10  H          0.54550000       0.25000000       0.18390000
    11  H          0.04550000       0.75000000       0.81610000
    12  H          0.45450000       0.75000000       0.81610000
    13  C          0.14611300       0.25000000       0.43140000
    14  C          0.35388700       0.25000000       0.43140000
    15  C          0.85388700       0.75000000       0.56860000
    16  C          0.64611300       0.75000000       0.56860000
    17  H          0.10080000       0.17800000       0.51300000
    18  H          0.39920000       0.32200000       0.51300000
    19  H          0.89920000       0.67800000       0.48700000
    20  H          0.60080000       0.82200000       0.48700000
    21  H          0.89920000       0.82200000       0.48700000
    22  H          0.60080000       0.67800000       0.48700000
    23  H          0.10080000       0.32200000       0.51300000
    24  H          0.39920000       0.17800000       0.51300000
    25  C          0.14279000       0.36196000       0.05820000
    26  C          0.35721000       0.13804000       0.05820000
    27  C          0.85721000       0.86196000       0.94180000
    28  C          0.64279000       0.63804000       0.94180000
    29  C          0.85721000       0.63804000       0.94180000
    30  C          0.64279000       0.86196000       0.94180000
    31  C          0.14279000       0.13804000       0.05820000
    32  C          0.35721000       0.36196000       0.05820000
    33  H          0.09700000       0.43440000       0.13730000
    34  H          0.40300000       0.06560000       0.13730000
    35  H          0.90300000       0.93440000       0.86270000
    36  H          0.59700000       0.56560000       0.86270000
    37  H          0.90300000       0.56560000       0.86270000
    38  H          0.59700000       0.93440000       0.86270000
    39  H          0.09700000       0.06560000       0.13730000
    40  H          0.40300000       0.43440000       0.13730000
    41  H          0.09700000       0.36230000       0.89670000
    42  H          0.40300000       0.13770000       0.89670000
    43  H          0.90300000       0.86230000       0.10330000
    44  H          0.59700000       0.63770000       0.10330000
    45  H          0.90300000       0.63770000       0.10330000
    46  H          0.59700000       0.86230000       0.10330000
    47  H          0.09700000       0.13770000       0.89670000
    48  H          0.40300000       0.36230000       0.89670000
    49  O          0.25000000       0.75000000       0.13530000
    50  O          0.75000000       0.25000000       0.86470000
    51  H          0.25000000       0.67455000       0.21850000
    52  H          0.25000000       0.82545000       0.21850000
    53  H          0.75000000       0.17455000       0.78150000
    54  H          0.75000000       0.32545000       0.78150000
