data_PASXIS
_symmetry_space_group_name_H-M    'P1'
_symmetry_Int_Tables_number       1
loop_
_symmetry_equiv_pos_site_id
_symmetry_equiv_pos_as_xyz
1 x,y,z
_cell_length_a                   14.9836
_cell_length_b                   12.4464
_cell_length_c                   11.155918
_cell_angle_alpha                90.0
_cell_angle_beta                 90.0
_cell_angle_gamma                90.0
loop_
_atom_site_label
_atom_site_type_symbol
_atom_site_fract_x
_atom_site_fract_y
_atom_site_fract_z
     1  Br         0.63652000       0.41062000       0.67030000
     2  Br         0.63652000       0.08938000       0.17030000
     3  Br         0.36348000       0.91062000       0.67030000
     4  Br         0.36348000       0.58938000       0.17030000
     5  Br         0.86622000       0.59183000       0.19930000
     6  Br         0.86622000       0.90817000       0.69930000
     7  Br         0.13378000       0.09183000       0.19930000
     8  Br         0.13378000       0.40817000       0.69930000
     9  Br         0.60572000       0.73243000       0.48930000
    10  Br         0.60572000       0.76757000      -0.01070000
    11  Br         0.39428000       0.23243000       0.48930000
    12  Br         0.39428000       0.26757000      -0.01070000
    13  Br         0.89722000       0.22212000       0.39930000
    14  Br         0.89722000       0.27788000       0.89930000
    15  Br         0.10278000       0.72212000       0.39930000
    16  Br         0.10278000       0.77788000       0.89930000
    17  C          0.93961900       0.49320000       0.52040000
    18  C          0.93961900       0.00680000       0.02040000
    19  C          0.06038100      -0.00680000       0.52040000
    20  C          0.06038100       0.50680000       0.02040000
    21  H         -0.00230000       0.46080000       0.53300000
    22  H         -0.00230000       0.03920000       0.03300000
    23  H          0.00230000       0.96080000       0.53300000
    24  H          0.00230000       0.53920000       0.03300000
    25  H          0.92080000       0.47800000       0.43890000
    26  H          0.92080000       0.02200000       0.93890000
    27  H          0.07920000       0.97800000       0.43890000
    28  H          0.07920000       0.52200000       0.93890000
    29  C          0.87320000       0.44730000       0.60850000
    30  C          0.87320000       0.05270000       0.10850000
    31  C          0.12680000       0.94730000       0.60850000
    32  C          0.12680000       0.55270000       0.10850000
    33  H          0.89880000       0.38700000       0.65060000
    34  H          0.89880000       0.11300000       0.15060000
    35  H          0.10120000       0.88700000       0.65060000
    36  H          0.10120000       0.61300000       0.15060000
    37  H          0.82000000       0.42310000       0.56620000
    38  H          0.82000000       0.07690000       0.06620000
    39  H          0.18000000       0.92310000       0.56620000
    40  H          0.18000000       0.57690000       0.06620000
    41  C          0.86031500       0.66521800       0.53140000
    42  C          0.86031500       0.83478200       0.03140000
    43  C          0.13968500       0.16521800       0.53140000
    44  C          0.13968500       0.33478200       0.03140000
    45  H          0.83530000       0.65850000       0.45120000
    46  H          0.83530000       0.84150000       0.95120000
    47  H          0.16470000       0.15850000       0.45120000
    48  H          0.16470000       0.34150000       0.95120000
    49  H          0.86790000       0.74100000       0.54900000
    50  H          0.86790000       0.75900000       0.04900000
    51  H          0.13210000       0.24100000       0.54900000
    52  H          0.13210000       0.25900000       0.04900000
    53  C          0.79581800       0.61020000       0.62830000
    54  C          0.79581800       0.88980000       0.12830000
    55  C          0.20418200       0.11020000       0.62830000
    56  C          0.20418200       0.38980000       0.12830000
    57  H          0.76610000       0.66470000       0.67530000
    58  H          0.76610000       0.83530000       0.17530000
    59  H          0.23390000       0.16470000       0.67530000
    60  H          0.23390000       0.33530000       0.17530000
    61  H          0.75050000       0.56760000       0.58750000
    62  H          0.75050000       0.93240000       0.08750000
    63  H          0.24950000       0.06760000       0.58750000
    64  H          0.24950000       0.43240000       0.08750000
    65  C          0.98341400       0.64351800       0.66530000
    66  C          0.98341400       0.85648200       0.16530000
    67  C          0.01658600       0.14351800       0.66530000
    68  C          0.01658600       0.35648200       0.16530000
    69  H          0.04260000       0.61330000       0.67470000
    70  H          0.04260000       0.88670000       0.17470000
    71  H          0.95740000       0.11330000       0.67470000
    72  H          0.95740000       0.38670000       0.17470000
    73  H          0.98890000       0.72110000       0.66800000
    74  H          0.98890000       0.77890000       0.16800000
    75  H          0.01110000       0.22110000       0.66800000
    76  H          0.01110000       0.27890000       0.16800000
    77  C          0.93130000       0.61140000       0.75850000
    78  C          0.93130000       0.88860000       0.25850000
    79  C          0.06870000       0.11140000       0.75850000
    80  C          0.06870000       0.38860000       0.25850000
    81  H          0.91000000       0.67210000       0.80320000
    82  H          0.91000000       0.82790000       0.30320000
    83  H          0.09000000       0.17210000       0.80320000
    84  H          0.09000000       0.32790000       0.30320000
    85  H          0.96550000       0.56490000       0.81190000
    86  H          0.96550000       0.93510000       0.31190000
    87  H          0.03450000       0.06490000       0.81190000
    88  H          0.03450000       0.43510000       0.31190000
    89  N          0.94531500       0.61020000       0.53840000
    90  N          0.94531500       0.88980000       0.03840000
    91  N          0.05468500       0.11020000       0.53840000
    92  N          0.05468500       0.38980000       0.03840000
    93  H          0.98200000       0.63720000       0.48100000
    94  H          0.98200000       0.86280000       0.98100000
    95  H          0.01800000       0.13720000       0.48100000
    96  H          0.01800000       0.36280000       0.98100000
    97  N          0.84771200       0.54401600       0.70230000
    98  N          0.84771200       0.95598400       0.20230000
    99  N          0.15228800       0.04401600       0.70230000
   100  N          0.15228800       0.45598400       0.20230000
   101  H          0.81330000       0.51730000       0.76250000
   102  H          0.81330000       0.98270000       0.26250000
   103  H          0.18670000       0.01730000       0.76250000
   104  H          0.18670000       0.48270000       0.26250000
   105  N          0.61351900      -0.00730000       0.85550000
   106  N          0.61351900       0.50730000       0.35550000
   107  N          0.38648100       0.49270000       0.85550000
   108  N          0.38648100       0.00730000       0.35550000
   109  H          0.61360000       0.94430000       0.91640000
   110  H          0.61360000       0.55570000       0.41640000
   111  H          0.38640000       0.44430000       0.91640000
   112  H          0.38640000       0.05570000       0.41640000
   113  N          0.61461200       0.12801900       0.67240000
   114  N          0.61461200       0.37198100       0.17240000
   115  N          0.38538800       0.62801900       0.67240000
   116  N          0.38538800       0.87198100       0.17240000
   117  H          0.61460000       0.17410000       0.60830000
   118  H          0.61460000       0.32590000       0.10830000
   119  H          0.38540000       0.67410000       0.60830000
   120  H          0.38540000       0.82590000       0.10830000
   121  C          0.53920000       0.05730000       0.84550000
   122  C          0.53920000       0.44270000       0.34550000
   123  C          0.46080000       0.55730000       0.84550000
   124  C          0.46080000       0.94270000       0.34550000
   125  H          0.52410000       0.08150000       0.92510000
   126  H          0.52410000       0.41850000       0.42510000
   127  H          0.47590000       0.58150000       0.92510000
   128  H          0.47590000       0.91850000       0.42510000
   129  H          0.49000000       0.01040000       0.81990000
   130  H          0.49000000       0.48960000       0.31990000
   131  H          0.51000000       0.51040000       0.81990000
   132  H          0.51000000      -0.01040000       0.31990000
   133  C          0.53681400       0.16321600       0.75630000
   134  C          0.53681400       0.33678400       0.25630000
   135  C          0.46318600       0.66321600       0.75630000
   136  C          0.46318600       0.83678400       0.25630000
   137  H          0.48060000       0.17050000       0.71400000
   138  H          0.48060000       0.32950000       0.21400000
   139  H          0.51940000       0.67050000       0.71400000
   140  H          0.51940000       0.82950000       0.21400000
   141  H          0.55020000       0.22910000       0.79910000
   142  H          0.55020000       0.27090000       0.29910000
   143  H          0.44980000       0.72910000       0.79910000
   144  H          0.44980000       0.77090000       0.29910000
   145  C          0.69671400       0.06171700       0.84230000
   146  C          0.69671400       0.43828300       0.34230000
   147  C          0.30328600       0.56171700       0.84230000
   148  C          0.30328600       0.93828300       0.34230000
   149  H          0.74890000       0.01570000       0.84060000
   150  H          0.74890000       0.48430000       0.34060000
   151  H          0.25110000       0.51570000       0.84060000
   152  H          0.25110000       0.98430000       0.34060000
   153  H          0.70170000       0.10850000       0.91150000
   154  H          0.70170000       0.39150000       0.41150000
   155  H          0.29830000       0.60850000       0.91150000
   156  H          0.29830000       0.89150000       0.41150000
   157  C          0.69471200       0.13391600       0.72230000
   158  C          0.69471200       0.36608400       0.22230000
   159  C          0.30528800       0.63391600       0.72230000
   160  C          0.30528800       0.86608400       0.22230000
   161  H          0.70830000       0.20810000       0.74180000
   162  H          0.70830000       0.29190000       0.24180000
   163  H          0.29170000       0.70810000       0.74180000
   164  H          0.29170000       0.79190000       0.24180000
   165  H          0.73960000       0.10840000       0.66630000
   166  H          0.73960000       0.39160000       0.16630000
   167  H          0.26040000       0.60840000       0.66630000
   168  H          0.26040000       0.89160000       0.16630000
   169  C          0.61711800       0.94180000       0.71840000
   170  C          0.61711800       0.55820000       0.21840000
   171  C          0.38288200       0.44180000       0.71840000
   172  C          0.38288200       0.05820000       0.21840000
   173  H          0.67810000       0.92710000       0.69350000
   174  H          0.67810000       0.57290000       0.19350000
   175  H          0.32190000       0.42710000       0.69350000
   176  H          0.32190000       0.07290000       0.19350000
   177  H          0.58260000       0.87610000       0.71240000
   178  H          0.58260000       0.62390000       0.21240000
   179  H          0.41740000       0.37610000       0.71240000
   180  H          0.41740000       0.12390000       0.21240000
   181  C          0.57320000       0.03730000       0.63540000
   182  C          0.57320000       0.46270000       0.13540000
   183  C          0.42680000       0.53730000       0.63540000
   184  C          0.42680000       0.96270000       0.13540000
   185  H          0.58420000       0.02340000       0.55050000
   186  H          0.58420000       0.47660000       0.05050000
   187  H          0.41580000       0.52340000       0.55050000
   188  H          0.41580000       0.97660000       0.05050000
   189  H          0.50920000       0.04130000       0.64790000
   190  H          0.50920000       0.45870000       0.14790000
   191  H          0.49080000       0.54130000       0.64790000
   192  H          0.49080000       0.95870000       0.14790000
   193  O          0.68816000       0.17721400       0.44730000
   194  O          0.68816000       0.32278600       0.94730000
   195  O          0.31184000       0.67721400       0.44730000
   196  O          0.31184000       0.82278600       0.94730000
   197  H          0.74652000       0.20730000       0.43540000
   198  H          0.74652000       0.29270000       0.93540000
   199  H          0.25348000       0.70730000       0.43540000
   200  H          0.25348000       0.79270000       0.93540000
   201  H          0.68320000       0.10051100       0.45319000
   202  H          0.68320000       0.39948900       0.95319000
   203  H          0.31680000       0.60051100       0.45319000
   204  H          0.31680000       0.89948900       0.95319000
   205  O          0.76040140       0.93103000       0.44470000
   206  O          0.76040140       0.56897000       0.94470000
   207  O          0.23959860       0.43103000       0.44470000
   208  O          0.23959860       0.06897000       0.94470000
   209  H          0.71292170       0.88031500       0.43380000
   210  H          0.71292170       0.61968500       0.93380000
   211  H          0.28707830       0.38031500       0.43380000
   212  H          0.28707830       0.11968500       0.93380000
   213  H          0.79660000       0.92611000       0.51660000
   214  H          0.79660000       0.57389000       0.01660000
   215  H          0.20340000       0.42611000       0.51660000
   216  H          0.20340000       0.07389000       0.01660000
