data_PDHTEZ05
_symmetry_space_group_name_H-M    'P1'
_symmetry_Int_Tables_number       1
loop_
_symmetry_equiv_pos_site_id
_symmetry_equiv_pos_as_xyz
1 x,y,z
_cell_length_a                   5.460301
_cell_length_b                   12.78453
_cell_length_c                   15.64744
_cell_angle_alpha                90.0
_cell_angle_beta                 97.2812
_cell_angle_gamma                90.0
loop_
_atom_site_label
_atom_site_type_symbol
_atom_site_fract_x
_atom_site_fract_y
_atom_site_fract_z
     1  N          0.33042000       0.59460900       0.30162700
     2  N          0.16958000       0.09460900       0.19837300
     3  N          0.66958000       0.40539100       0.69837300
     4  N          0.83042000       0.90539100       0.80162700
     5  N          0.75872000       0.61063900       0.30346700
     6  N          0.74128000       0.11063900       0.19653300
     7  N          0.24128000       0.38936100       0.69653300
     8  N          0.25872000       0.88936100       0.80346700
     9  N          0.71952000       0.45247900       0.18218700
    10  N          0.78048000       0.95247900       0.31781300
    11  N          0.28048000       0.54752100       0.81781300
    12  N          0.21952000       0.04752100       0.68218700
    13  N          0.38002000       0.66133900       0.37517700
    14  N          0.11998000       0.16133900       0.12482300
    15  N          0.61998000       0.33866100       0.62482300
    16  N          0.88002000       0.83866100       0.87517700
    17  N          0.79692000       0.61146900       0.39548700
    18  N          0.70308000       0.11146900       0.10451300
    19  N          0.20308000       0.38853100       0.60451300
    20  N          0.29692000       0.88853100       0.89548700
    21  N          0.41172000       0.70258900       0.54575700
    22  N          0.08828000       0.20258900       0.95424300
    23  N          0.58828000       0.29741100       0.45424300
    24  N          0.91172000       0.79741100       0.04575700
    25  C          0.60172000       0.63816100       0.42759900
    26  C          0.89828000       0.13816100       0.07240100
    27  C          0.39828000       0.36183900       0.57240100
    28  C          0.10172000       0.86183900       0.92759900
    29  C          0.60942000       0.65389100       0.52161800
    30  C          0.89058000       0.15389100       0.97838200
    31  C          0.39058000       0.34610900       0.47838200
    32  C          0.10942000       0.84610900       0.02161800
    33  C          0.52742000       0.57389100       0.26787800
    34  C         -0.02742000       0.07389100       0.23212200
    35  C          0.47258000       0.42610900       0.73212200
    36  C          0.02742000       0.92610900       0.76787800
    37  C          0.51332000       0.50651100       0.19059800
    38  C         -0.01332000       0.00651100       0.30940200
    39  C          0.48668000       0.49348900       0.80940200
    40  C          0.01332000      -0.00651100       0.69059800
    41  C          0.29812000       0.49884110       0.13279800
    42  C          0.20188000      -0.00115890       0.36720200
    43  C          0.70188000       0.50115890       0.86720200
    44  C          0.79812000       0.00115890       0.63279800
    45  H          0.16080000       0.53970000       0.13940000
    46  H          0.33920000       0.03970000       0.36060000
    47  H          0.83920000       0.46030000       0.86060000
    48  H          0.66080000       0.96030000       0.63940000
    49  C          0.70962000       0.38393100       0.11717900
    50  C          0.79038000       0.88393100       0.38282100
    51  C          0.29038000       0.61606900       0.88282100
    52  C          0.20962000       0.11606900       0.61717900
    53  H          0.84970000       0.34440000       0.11160000
    54  H          0.65030000       0.84440000       0.38840000
    55  H          0.15030000       0.65560000       0.88840000
    56  H          0.34970000       0.15560000       0.61160000
    57  C          0.50203000       0.36871110       0.05778900
    58  C         -0.00203000       0.86871110       0.44221100
    59  C          0.49797000       0.63128890       0.94221100
    60  C          0.00203000       0.13128890       0.55778900
    61  H          0.50200000       0.31950000       0.01400000
    62  H         -0.00200000       0.81950000       0.48600000
    63  H          0.49800000       0.68050000       0.98600000
    64  H          0.00200000       0.18050000       0.51400000
    65  C          0.61353000       0.69920110       0.69170900
    66  C          0.88647000       0.19920110       0.80829100
    67  C          0.38647000       0.30079890       0.30829100
    68  C          0.11353000       0.80079890       0.19170900
    69  H          0.61060000       0.71670000       0.74930000
    70  H          0.88940000       0.21670000       0.75070000
    71  H          0.38940000       0.28330000       0.25070000
    72  H          0.11060000       0.78330000       0.24930000
    73  C          0.81343000       0.62397110       0.57895900
    74  C          0.68657000       0.12397110       0.92104100
    75  C          0.18657000       0.37602890       0.42104100
    76  C          0.31343000       0.87602890       0.07895900
    77  H          0.94600000       0.58950000       0.55960000
    78  H          0.55400000       0.08950000       0.94040000
    79  H          0.05400000       0.41050000       0.44040000
    80  H          0.44600000       0.91050000       0.05960000
    81  C          0.29433000       0.42869110       0.06517900
    82  C          0.20567000       0.92869110       0.43482100
    83  C          0.70567000       0.57130890       0.93482100
    84  C          0.79433000       0.07130890       0.56517900
    85  H          0.15390000       0.42190000       0.02520000
    86  H          0.34610000       0.92190000       0.47480000
    87  H          0.84610000       0.57810000       0.97480000
    88  H          0.65390000       0.07810000       0.52520000
    89  C          0.81373000       0.64675110       0.66537900
    90  C          0.68627000       0.14675110       0.83462100
    91  C          0.18627000       0.35324890       0.33462100
    92  C          0.31373000       0.85324890       0.16537900
    93  H          0.94650000       0.62720000       0.70540000
    94  H          0.55350000       0.12720000       0.79460000
    95  H          0.05350000       0.37280000       0.29460000
    96  H          0.44650000       0.87280000       0.20540000
    97  C          0.41793000       0.72475110       0.62978900
    98  C          0.08207000       0.22475110       0.87021100
    99  C          0.58207000       0.27524890       0.37021100
   100  C          0.91793000       0.77524890       0.12978900
   101  H          0.28320000       0.75930000       0.64760000
   102  H          0.21680000       0.25930000       0.85240000
   103  H          0.71680000       0.24070000       0.35240000
   104  H          0.78320000       0.74070000       0.14760000
   105  H          0.88630000       0.57961400       0.28501100
   106  H          0.61370000       0.07961400       0.21498900
   107  H          0.11370000       0.42038600       0.71498900
   108  H          0.38630000       0.92038600       0.78501100
   109  H          0.25340000       0.66111500       0.40511300
   110  H          0.24660000       0.16111500       0.09488700
   111  H          0.74660000       0.33888500       0.59488700
   112  H          0.75340000       0.83888500       0.90511300
