data_PDHTEZ
_symmetry_space_group_name_H-M    'P1'
_symmetry_Int_Tables_number       1
loop_
_symmetry_equiv_pos_site_id
_symmetry_equiv_pos_as_xyz
1 x,y,z
_cell_length_a                   8.3585
_cell_length_b                   8.9225
_cell_length_c                   8.3175
_cell_angle_alpha                111.92
_cell_angle_beta                 90.92
_cell_angle_gamma                101.52
loop_
_atom_site_label
_atom_site_type_symbol
_atom_site_fract_x
_atom_site_fract_y
_atom_site_fract_z
     1  C          0.06690000       0.71840000       0.84750000
     2  C          0.93310000       0.28160000       0.15250000
     3  C          0.28850000       0.00230000       0.71300000
     4  C          0.71150000      -0.00230000       0.28700000
     5  C          0.39710000       0.88970000       0.64020000
     6  C          0.60290000       0.11030000       0.35980000
     7  C          0.36810000       0.77070000       0.47110000
     8  C          0.63190000       0.22930000       0.52890000
     9  C          0.47700000       0.67150000       0.41100000
    10  C          0.52300000       0.32850000       0.58900000
    11  C          0.61480000       0.69230000       0.51750000
    12  C          0.38520000       0.30770000       0.48250000
    13  C          0.63450000       0.81160000       0.68510000
    14  C          0.36550000       0.18840000       0.31490000
    15  C         -0.01710000       0.56440000       0.73810000
    16  C          0.01710000       0.43560000       0.26190000
    17  C          0.14720000       0.43450000       0.83770000
    18  C          0.85280000       0.56550000       0.16230000
    19  C          0.24160000       0.58560000       0.95010000
    20  C          0.75840000       0.41440000       0.04990000
    21  C          0.19940000       0.72850000       0.95400000
    22  C          0.80060000       0.27150000       0.04600000
    23  C          0.18210000       0.27630000       0.82760000
    24  C          0.81790000       0.72370000       0.17240000
    25  H          0.03000000       0.82900000       0.85000000
    26  H          0.97000000       0.17100000       0.15000000
    27  H          0.43100000       0.10200000       0.92500000
    28  H          0.56900000       0.89800000       0.07500000
    29  H          0.26100000       0.75700000       0.38900000
    30  H          0.73900000       0.24300000       0.61100000
    31  H          0.45600000       0.57700000       0.28100000
    32  H          0.54400000       0.42300000       0.71900000
    33  H          0.70400000       0.61800000       0.47200000
    34  H          0.29600000       0.38200000       0.52800000
    35  H          0.74100000       0.82700000       0.77000000
    36  H          0.25900000       0.17300000       0.23000000
    37  H          0.88100000       0.55600000       0.65100000
    38  H          0.11900000       0.44400000       0.34900000
    39  H          0.34600000       0.59100000       0.03200000
    40  H          0.65400000       0.40900000       0.96800000
    41  H          0.27000000       0.84800000       0.04000000
    42  H          0.73000000       0.15200000       0.96000000
    43  H          0.00500000       0.14700000       0.63600000
    44  H         -0.00500000       0.85300000       0.36400000
    45  N          0.31960000       0.10890000       0.88860000
    46  N          0.68040000       0.89110000       0.11140000
    47  N          0.30750000       0.27460000       0.91770000
    48  N          0.69250000       0.72540000       0.08230000
    49  N          0.52950000       0.90870000       0.74650000
    50  N          0.47050000       0.09130000       0.25350000
    51  N          0.01940000       0.42270000       0.73210000
    52  N         -0.01940000       0.57730000       0.26790000
    53  N          0.08050000       0.12710000       0.71520000
    54  N          0.91950000       0.87290000       0.28480000
    55  N          0.16690000       0.00640000       0.61910000
    56  N          0.83310000      -0.00640000       0.38090000
