data_PDHTEZ01
_symmetry_space_group_name_H-M    'P1'
_symmetry_Int_Tables_number       1
loop_
_symmetry_equiv_pos_site_id
_symmetry_equiv_pos_as_xyz
1 x,y,z
_cell_length_a                   7.37327
_cell_length_b                   11.03549
_cell_length_c                   13.8201
_cell_angle_alpha                90.0
_cell_angle_beta                 90.0
_cell_angle_gamma                90.0
loop_
_atom_site_label
_atom_site_type_symbol
_atom_site_fract_x
_atom_site_fract_y
_atom_site_fract_z
     1  C          0.11182000       0.13081000       0.36731000
     2  C          0.38818000       0.86919000       0.86731000
     3  C          0.61182000       0.36919000       0.63269000
     4  C          0.88818000       0.63081000       0.13269000
     5  C          0.10603000       0.02922000       0.42641000
     6  C          0.39397000       0.97078000       0.92641000
     7  C          0.60603000       0.47078000       0.57359000
     8  C          0.89397000       0.52922000       0.07359000
     9  C          0.17213000       0.03882000       0.51901000
    10  C          0.32787000       0.96118000       0.01901000
    11  C          0.67213000       0.46118000       0.48099000
    12  C          0.82787000       0.53882000       0.98099000
    13  C          0.24183000       0.14762000       0.55001000
    14  C          0.25817000       0.85238000       0.05001000
    15  C          0.74183000       0.35238000       0.44999000
    16  C          0.75817000       0.64762000       0.94999000
    17  C          0.24273000       0.24352000       0.48681000
    18  C          0.25727000       0.75648000       0.98681000
    19  C          0.74273000       0.25648000       0.51319000
    20  C          0.75727000       0.74352000       0.01319000
    21  N          0.17782000       0.23801000       0.39611000
    22  N          0.32218000       0.76199000       0.89611000
    23  N          0.67782000       0.26199000       0.60389000
    24  N          0.82218000       0.73801000       0.10389000
    25  C          0.03142000       0.12851000       0.26911000
    26  C          0.46858000       0.87149000       0.76911000
    27  C          0.53142000       0.37149000       0.73089000
    28  C          0.96858000       0.62851000       0.23089000
    29  N         -0.00753000       0.23871000       0.22571000
    30  N          0.50753000       0.76129000       0.72571000
    31  N          0.49247000       0.26129000       0.77429000
    32  N          0.00753000       0.73871000       0.27429000
    33  N          0.01582000       0.24121000       0.12351000
    34  N          0.48418000       0.75879000       0.62351000
    35  N          0.51582000       0.25879000       0.87649000
    36  N         -0.01582000       0.74121000       0.37649000
    37  C          0.95898000       0.14341000       0.08461000
    38  C          0.54102000       0.85659000       0.58461000
    39  C          0.45898000       0.35659000       0.91539000
    40  C          0.04102000       0.64341000       0.41539000
    41  N          0.89008000       0.04881000       0.14021000
    42  N          0.60992000       0.95119000       0.64021000
    43  N          0.39008000       0.45119000       0.85979000
    44  N          0.10992000       0.54881000       0.35979000
    45  N         -0.01172000       0.02831000       0.22801000
    46  N          0.51172000       0.97169000       0.72801000
    47  N          0.48828000       0.47169000       0.77199000
    48  N          0.01172000       0.52831000       0.27199000
    49  C          0.96008000       0.12971000       0.97809000
    50  C          0.53992000       0.87029000       0.47809000
    51  C          0.46008000       0.37029000       0.02191000
    52  C          0.03992000       0.62971000       0.52191000
    53  C          0.02453000       0.22002000       0.91799000
    54  C          0.47547000       0.77998000       0.41799000
    55  C          0.52453000       0.27998000       0.08201000
    56  C          0.97547000       0.72002000       0.58201000
    57  C          0.02064000       0.20052000       0.81959000
    58  C          0.47936000       0.79948000       0.31959000
    59  C          0.52064000       0.29948000       0.18041000
    60  C          0.97936000       0.70052000       0.68041000
    61  C          0.95367000       0.09302000       0.78509000
    62  C          0.54633000       0.90698000       0.28509000
    63  C          0.45367000       0.40698000       0.21491000
    64  C          0.04633000       0.59302000       0.71491000
    65  C          0.89207000       0.00842000       0.84989000
    66  C          0.60793000      -0.00842000       0.34989000
    67  C          0.39207000       0.49158000       0.15011000
    68  C          0.10793000       0.50842000       0.65011000
    69  N          0.89388000       0.02481000       0.94579000
    70  N          0.60612000       0.97519000       0.44579000
    71  N          0.39388000       0.47519000       0.05421000
    72  N          0.10612000       0.52481000       0.55421000
    73  H          0.05930000       0.95880000       0.40410000
    74  H          0.44070000       0.04120000       0.90410000
    75  H          0.55930000       0.54120000       0.59590000
    76  H          0.94070000       0.45880000       0.09590000
    77  H          0.16730000       0.97380000       0.56410000
    78  H          0.33270000       0.02620000       0.06410000
    79  H          0.66730000       0.52620000       0.43590000
    80  H          0.83270000       0.47380000       0.93590000
    81  H          0.28630000       0.16020000       0.61310000
    82  H          0.21370000       0.83980000       0.11310000
    83  H          0.78630000       0.33980000       0.38690000
    84  H          0.71370000       0.66020000       0.88690000
    85  H          0.28730000       0.32220000       0.50810000
    86  H          0.21270000       0.67780000       0.00810000
    87  H          0.78730000       0.17780000       0.49190000
    88  H          0.71270000       0.82220000      -0.00810000
    89  H          0.04630000       0.30020000       0.25210000
    90  H          0.45370000       0.69980000       0.75210000
    91  H          0.54630000       0.19980000       0.74790000
    92  H          0.95370000       0.80020000       0.24790000
    93  H          0.88480000       0.97880000       0.11010000
    94  H          0.61520000       0.02120000       0.61010000
    95  H          0.38480000       0.52120000       0.88990000
    96  H          0.11520000       0.47880000       0.38990000
    97  H          0.07930000       0.29420000       0.94490000
    98  H          0.42070000       0.70580000       0.44490000
    99  H          0.57930000       0.20580000       0.05510000
   100  H          0.92070000       0.79420000       0.55510000
   101  H          0.07440000       0.26120000       0.77580000
   102  H          0.42560000       0.73880000       0.27580000
   103  H          0.57440000       0.23880000       0.22420000
   104  H          0.92560000       0.76120000       0.72420000
   105  H          0.94770000       0.07920000       0.71680000
   106  H          0.55230000       0.92080000       0.21680000
   107  H          0.44770000       0.42080000       0.28320000
   108  H          0.05230000       0.57920000       0.78320000
   109  H          0.84370000       0.92380000       0.82990000
   110  H          0.65630000       0.07620000       0.32990000
   111  H          0.34370000       0.57620000       0.17010000
   112  H          0.15630000       0.42380000       0.67010000
