data_PEFGEO02
_symmetry_space_group_name_H-M    'P1'
_symmetry_Int_Tables_number       1
loop_
_symmetry_equiv_pos_site_id
_symmetry_equiv_pos_as_xyz
1 x,y,z
_cell_length_a                   5.19142
_cell_length_b                   18.99936
_cell_length_c                   10.07323
_cell_angle_alpha                90.0
_cell_angle_beta                 100.3313
_cell_angle_gamma                90.0
loop_
_atom_site_label
_atom_site_type_symbol
_atom_site_fract_x
_atom_site_fract_y
_atom_site_fract_z
     1  N          0.68673000       0.01986800       0.86847140
     2  N          0.81327000       0.51986800       0.63152860
     3  N          0.31327000       0.98013200       0.13152860
     4  N          0.18673000       0.48013200       0.36847140
     5  O          0.70942000       0.08075600       0.06036110
     6  O          0.79058000       0.58075600       0.43963890
     7  O          0.29058000       0.91924400       0.93963890
     8  O          0.20942000       0.41924400       0.56036110
     9  C          0.79023000       0.07039800       0.95209150
    10  C          0.70977000       0.57039800       0.54790850
    11  C          0.20977000       0.92960200       0.04790850
    12  C          0.29023000       0.42960200       0.45209150
    13  C          0.00393000       0.11461800       0.91327160
    14  C          0.49607000       0.61461800       0.58672840
    15  C         -0.00393000       0.88538200       0.08672840
    16  C          0.50393000       0.38538200       0.41327160
    17  H          0.06350000       0.09340000       0.83540000
    18  H          0.43650000       0.59340000       0.66460000
    19  H          0.93650000       0.90660000       0.16460000
    20  H          0.56350000       0.40660000       0.33540000
    21  H          0.15070000       0.11720000      -0.01070000
    22  H          0.34930000       0.61720000       0.51070000
    23  H          0.84930000       0.88280000       0.01070000
    24  H          0.65070000       0.38280000       0.48930000
    25  H          0.93720000       0.16210000       0.88980000
    26  H          0.56280000       0.66210000       0.61020000
    27  H          0.06280000       0.83790000       0.11020000
    28  H          0.43720000       0.33790000       0.38980000
    29  H          0.74430000       0.01031000       0.79120000
    30  H          0.75570000       0.51031000       0.70880000
    31  H          0.25570000       0.98969000       0.20880000
    32  H          0.24430000       0.48969000       0.29120000
    33  H          0.55040000      -0.00721200       0.89320000
    34  H          0.94960000       0.49278800       0.60680000
    35  H          0.44960000       0.00721200       0.10680000
    36  H          0.05040000       0.50721200       0.39320000
    37  O          0.20072000       0.02417500       0.39855100
    38  O          0.29928000       0.52417500       0.10144900
    39  O          0.79928000       0.97582500       0.60144900
    40  O          0.70072000       0.47582500       0.89855100
    41  O          0.18622000       0.06573600       0.60481100
    42  O          0.31378000       0.56573600       0.89518900
    43  O          0.81378000       0.93426400       0.39518900
    44  O          0.68622000       0.43426400       0.10481100
    45  C          0.48603000       0.11823800       0.48480150
    46  C          0.01397000       0.61823800       0.01519850
    47  C          0.51397000       0.88176200       0.51519850
    48  C         -0.01397000       0.38176200       0.98480150
    49  C          0.60593000       0.11847800       0.37142150
    50  C          0.89407000       0.61847800       0.12857850
    51  C          0.39407000       0.88152200       0.62857850
    52  C          0.10593000       0.38152200       0.87142150
    53  O          0.91672000       0.17183600       0.24923110
    54  O          0.58328000       0.67183600       0.25076890
    55  O          0.08328000       0.82816400       0.75076890
    56  O          0.41672000       0.32816400       0.74923110
    57  C          0.74663000       0.21710800       0.57448150
    58  C          0.75337000       0.71710800       0.92551850
    59  C          0.25337000       0.78289200       0.42551850
    60  C          0.24663000       0.28289200       0.07448150
    61  O          0.04472000       0.26835600       0.44399120
    62  O          0.45528000       0.76835600       0.05600880
    63  O          0.95528000       0.73164400       0.55600880
    64  O          0.54472000       0.23164400       0.94399120
    65  C          0.28123000       0.06575800       0.49180140
    66  C          0.21877000       0.56575800       0.00819860
    67  C          0.71877000       0.93424200       0.50819860
    68  C          0.78123000       0.43424200      -0.00819860
    69  C          0.79473000       0.16812800       0.35869150
    70  C          0.70527000       0.66812800       0.14130850
    71  C          0.20527000       0.83187200       0.64130850
    72  C          0.29473000       0.33187200       0.85869150
    73  C          0.86483000       0.21807800       0.46035150
    74  C          0.63517000       0.71807800       0.03964850
    75  C          0.13517000       0.78192200       0.53964850
    76  C          0.36483000       0.28192200       0.96035150
    77  O          0.83602000       0.26780600       0.66798120
    78  O          0.66398000       0.76780600       0.83201880
    79  O          0.16398000       0.73219400       0.33201880
    80  O          0.33602000       0.23219400       0.16798120
    81  C          0.55773000       0.16761800       0.58806150
    82  C          0.94227000       0.66761800       0.91193850
    83  C          0.44227000       0.83238200       0.41193850
    84  C          0.05773000       0.33238200       0.08806150
    85  H          0.47130000       0.16888000       0.66851800
    86  H          0.02870000       0.66888000       0.83148200
    87  H          0.52870000       0.83112000       0.33148200
    88  H         -0.02870000       0.33112000       0.16851800
    89  H          0.55230000       0.08368000       0.30211700
    90  H          0.94770000       0.58368000       0.19788300
    91  H          0.44770000       0.91632000       0.69788300
    92  H          0.05230000       0.41632000       0.80211700
    93  H          0.71240000       0.27851100       0.71420000
    94  H          0.78760000       0.77851100       0.78580000
    95  H          0.28760000       0.72148900       0.28580000
    96  H          0.21240000       0.22148900       0.21420000
    97  H          0.05850000       0.03231300       0.60220000
    98  H          0.44150000       0.53231300       0.89780000
    99  H          0.94150000       0.96768700       0.39780000
   100  H          0.55850000       0.46768700       0.10220000
   101  H          0.06850000       0.29521500       0.52130000
   102  H          0.43150000       0.79521500       0.97870000
   103  H          0.93150000       0.70478500       0.47870000
   104  H          0.56850000       0.20478500       0.02130000
   105  H          0.85240000       0.13841300       0.18430000
   106  H          0.64760000       0.63841300       0.31570000
   107  H          0.14760000       0.86158700       0.81570000
   108  H          0.35240000       0.36158700       0.68430000
