data_PEFGIR03
_symmetry_space_group_name_H-M    'P1'
_symmetry_Int_Tables_number       1
loop_
_symmetry_equiv_pos_site_id
_symmetry_equiv_pos_as_xyz
1 x,y,z
_cell_length_a                   10.200612
_cell_length_b                   13.410416
_cell_length_c                   9.206811
_cell_angle_alpha                90.0
_cell_angle_beta                 92.4972
_cell_angle_gamma                90.0
loop_
_atom_site_label
_atom_site_type_symbol
_atom_site_fract_x
_atom_site_fract_y
_atom_site_fract_z
     1  O          0.24518130       0.22495900       0.23477130
     2  O          0.75481870       0.72495900       0.26522870
     3  O          0.75481870       0.77504100       0.76522870
     4  O          0.24518130       0.27504100       0.73477130
     5  N          0.20978160       0.16136120       0.46046180
     6  N          0.79021840       0.66136120       0.03953820
     7  N          0.79021840       0.83863880       0.53953820
     8  N          0.20978160       0.33863880       0.96046180
     9  N          0.29016160       0.31878110       0.43732180
    10  N          0.70983840       0.81878110       0.06267820
    11  N          0.70983840       0.68121890       0.56267820
    12  N          0.29016160       0.18121890       0.93732180
    13  C          0.35258190       0.39979140       0.36972000
    14  C          0.64741810       0.89979140       0.13028000
    15  C          0.64741810       0.60020860       0.63028000
    16  C          0.35258190       0.10020860       0.86972000
    17  C          0.05532000       0.89749860       0.12332000
    18  C          0.94468000       0.39749860       0.37668000
    19  C          0.94468000       0.10250140       0.87668000
    20  C          0.05532000       0.60250140       0.62332000
    21  C          0.43767190       0.38474140       0.25792000
    22  C          0.56232810       0.88474140       0.24208000
    23  C          0.56232810       0.61525860       0.74208000
    24  C          0.43767190       0.11525860       0.75792000
    25  H          0.45330000       0.31920000       0.22350000
    26  H          0.54670000       0.81920000       0.27650000
    27  H          0.54670000       0.68080000       0.77650000
    28  H          0.45330000       0.18080000       0.72350000
    29  C          0.33301190       0.49481140       0.42312000
    30  C          0.66698810      -0.00518860       0.07688000
    31  C          0.66698810       0.50518860       0.57688000
    32  C          0.33301190       0.00518860       0.92312000
    33  H          0.27550000       0.50520000       0.50010000
    34  H          0.72450000       0.00520000      -0.00010000
    35  H          0.72450000       0.49480000       0.49990000
    36  H          0.27550000      -0.00520000       0.00010000
    37  C          0.17289180       0.06216140       0.42572000
    38  C          0.82710820       0.56216140       0.07428000
    39  C          0.82710820       0.93783860       0.57428000
    40  C          0.17289180       0.43783860       0.92572000
    41  C          0.39829190       0.57501140       0.36292000
    42  C          0.60170810       0.07501140       0.13708000
    43  C          0.60170810       0.42498860       0.63708000
    44  C          0.39829190       0.92498860       0.86292000
    45  N          0.02282180       0.86794870       0.01012190
    46  N          0.97717820       0.36794870       0.48987810
    47  N          0.97717820       0.13205130      -0.01012190
    48  N          0.02282180       0.63205130       0.51012190
    49  C          0.24777180       0.23410140       0.36772000
    50  C          0.75222820       0.73410140       0.13228000
    51  C          0.75222820       0.76589860       0.63228000
    52  C          0.24777180       0.26589860       0.86772000
    53  C          0.48012000       0.56087150       0.24732000
    54  C          0.51988000       0.06087150       0.25268000
    55  C          0.51988000       0.43912850       0.75268000
    56  C          0.48012000       0.93912850       0.74732000
    57  H          0.52170000       0.61610000       0.20390000
    58  H          0.47830000       0.11610000       0.29610000
    59  H          0.47830000       0.38390000       0.79610000
    60  H          0.52170000       0.88390000       0.70390000
    61  C          0.49942000       0.46519140       0.19682000
    62  C          0.50058000       0.96519140       0.30318000
    63  C          0.50058000       0.53480860       0.80318000
    64  C          0.49942000       0.03480860       0.69682000
    65  H          0.55610000       0.45460000       0.11910000
    66  H          0.44390000       0.95460000       0.38090000
    67  H          0.44390000       0.54540000       0.88090000
    68  H          0.55610000       0.04540000       0.61910000
    69  N          0.38437180       0.75074130       0.47832000
    70  N          0.61562820       0.25074130       0.02168000
    71  N          0.61562820       0.24925870       0.52168000
    72  N          0.38437180       0.74925870       0.97832000
    73  C          0.10128190       0.86286860       0.38052000
    74  C          0.89871810       0.36286860       0.11948000
    75  C          0.89871810       0.13713140       0.61948000
    76  C          0.10128190       0.63713140       0.88052000
    77  H          0.07760000       0.79510000       0.36430000
    78  H          0.92240000       0.29510000       0.13570000
    79  H          0.92240000       0.20490000       0.63570000
    80  H          0.07760000       0.70490000       0.86430000
    81  C          0.09739180       0.93127860       0.26632000
    82  C          0.90260820       0.43127860       0.23368000
    83  C          0.90260820       0.06872140       0.73368000
    84  C          0.09739180       0.56872140       0.76632000
    85  C          0.17581190      -0.00590140       0.54022000
    86  C          0.82418810       0.49409860       0.95978000
    87  C          0.82418810       0.00590140       0.45978000
    88  C          0.17581190       0.50590140       0.04022000
    89  H          0.20260000       0.01560000       0.63520000
    90  H          0.79740000       0.51560000       0.86480000
    91  H          0.79740000       0.98440000       0.36480000
    92  H          0.20260000       0.48440000       0.13520000
    93  C          0.13129190       0.03118140       0.28732000
    94  C          0.86870810       0.53118140       0.21268000
    95  C          0.86870810       0.96881860       0.71268000
    96  C          0.13129190       0.46881860       0.78732000
    97  H          0.12600000       0.07700000       0.20860000
    98  H          0.87400000       0.57700000       0.29140000
    99  H          0.87400000       0.92300000       0.79140000
   100  H          0.12600000       0.42300000       0.70860000
   101  C          0.14031190       0.89594860       0.51752000
   102  C          0.85968810       0.39594860       0.98248000
   103  C          0.85968810       0.10405140       0.48248000
   104  C          0.14031190       0.60405140       0.01752000
   105  H          0.14270000       0.85070000       0.59700000
   106  H          0.85730000       0.35070000       0.90300000
   107  H          0.85730000       0.14930000       0.40300000
   108  H          0.14270000       0.64930000       0.09700000
   109  C          0.38642000       0.67287160       0.42582000
   110  C          0.61358000       0.17287160       0.07418000
   111  C          0.61358000       0.32712840       0.57418000
   112  C          0.38642000       0.82712840       0.92582000
   113  H          0.22220000       0.17501500       0.55820000
   114  H          0.77780000       0.67501500       0.94180000
   115  H          0.77780000       0.82498500       0.44180000
   116  H          0.22220000       0.32498500       0.05820000
   117  H          0.27451900       0.32661400       0.53320000
   118  H          0.72548100       0.82661400       0.96680000
   119  H          0.72548100       0.67338600       0.46680000
   120  H          0.27451900       0.17338600       0.03320000
