data_PEFGEO01
_symmetry_space_group_name_H-M    'P1'
_symmetry_Int_Tables_number       1
loop_
_symmetry_equiv_pos_site_id
_symmetry_equiv_pos_as_xyz
1 x,y,z
_cell_length_a                   4.26302
_cell_length_b                   22.50021
_cell_length_c                   10.04893
_cell_angle_alpha                90.0
_cell_angle_beta                 92.8683
_cell_angle_gamma                90.0
loop_
_atom_site_label
_atom_site_type_symbol
_atom_site_fract_x
_atom_site_fract_y
_atom_site_fract_z
     1  O          0.37383000       0.17974600       0.63174110
     2  O          0.12617000       0.67974600       0.86825890
     3  O          0.62617000       0.82025400       0.36825890
     4  O          0.87383000       0.32025400       0.13174110
     5  O          0.62723000       0.24655500       0.83644120
     6  O          0.87277000       0.74655500       0.66355880
     7  O          0.37277000       0.75344500       0.16355880
     8  O          0.12723000       0.25344500       0.33644120
     9  O          0.69617000       0.02843600       0.85198110
    10  O          0.80383000       0.52843600       0.64801890
    11  O          0.30383000       0.97156400       0.14801890
    12  O          0.19617000       0.47156400       0.35198110
    13  O          0.45103000       0.22821600       0.09397110
    14  O          0.04897000       0.72821600       0.40602890
    15  O          0.54897000       0.77178400       0.90602890
    16  O          0.95103000       0.27178400       0.59397110
    17  O          0.72217000       0.05227600       0.06836110
    18  O          0.77783000       0.55227600       0.43163890
    19  O          0.27783000       0.94772400       0.93163890
    20  O          0.22217000       0.44772400       0.56836110
    21  C          0.00773000       0.11084800       0.91827150
    22  C          0.49227000       0.61084800       0.58172850
    23  C         -0.00773000       0.88915200       0.08172850
    24  C          0.50773000       0.38915200       0.41827150
    25  C          0.41704000       0.20267800       0.85996150
    26  C          0.08296000       0.70267800       0.64003850
    27  C          0.58296000       0.79732200       0.14003850
    28  C          0.91704000       0.29732200       0.35996150
    29  C          0.08264000       0.12104800       0.78657160
    30  C          0.41736000       0.62104800       0.71342840
    31  C          0.91736000       0.87895200       0.21342840
    32  C          0.58264000       0.37895200       0.28657160
    33  C          0.28684000       0.16652700       0.75827160
    34  C          0.21316000       0.66652700       0.74172840
    35  C          0.71316000       0.83347300       0.24172840
    36  C          0.78684000       0.33347300       0.25827160
    37  C          0.13104000       0.14775800       0.01987160
    38  C          0.36896000       0.64775800       0.48012840
    39  C          0.86896000       0.85224200       0.98012840
    40  C          0.63104000       0.35224200       0.51987160
    41  C          0.33304000       0.19334800      -0.00918850
    42  C          0.16696000       0.69334800       0.50918850
    43  C          0.66696000       0.80665200       0.00918850
    44  C          0.83304000       0.30665200       0.49081150
    45  C          0.79736000       0.06207800       0.95387160
    46  C          0.70264000       0.56207800       0.54612840
    47  C          0.20264000       0.93792200       0.04612840
    48  C          0.29736000       0.43792200       0.45387160
    49  H          0.07540000       0.14248000       0.11161900
    50  H          0.42460000       0.64248000       0.38838100
    51  H          0.92460000       0.85752000       0.88838100
    52  H          0.57540000       0.35752000       0.61161900
    53  H         -0.00540000       0.09809000       0.71521900
    54  H          0.50540000       0.59809000       0.78478100
    55  H          0.00540000       0.90191000       0.28478100
    56  H          0.49460000       0.40191000       0.21521900
    57  H          0.55730000      -0.00011300       0.88430000
    58  H          0.94270000       0.49988700       0.61570000
    59  H          0.44270000       0.00011300       0.11570000
    60  H          0.05730000       0.50011300       0.38430000
    61  H          0.68750000       0.24491100       0.75730000
    62  H          0.81250000       0.74491100       0.74270000
    63  H          0.31250000       0.75508900       0.24270000
    64  H          0.18750000       0.25508900       0.25730000
    65  H          0.57760000       0.25471100       0.06920000
    66  H          0.92240000       0.75471100       0.43080000
    67  H          0.42240000       0.74528900       0.93080000
    68  H          0.07760000       0.24528900       0.56920000
    69  H          0.40460000       0.14471200       0.58530000
    70  H          0.09540000       0.64471200       0.91470000
    71  H          0.59540000       0.85528800       0.41470000
    72  H          0.90460000       0.35528800       0.08530000
    73  O          0.46873000       0.07912600       0.51520120
    74  O          0.03127000       0.57912600       0.98479880
    75  O          0.53127000       0.92087400       0.48479880
    76  O         -0.03127000       0.42087400       0.01520120
    77  N          0.74344000       0.02982800       0.36633150
    78  N          0.75656000       0.52982800       0.13366850
    79  N          0.25656000       0.97017200       0.63366850
    80  N          0.24344000       0.47017200       0.86633150
    81  C          0.72915000       0.13698900       0.35511190
    82  C          0.77085000       0.63698900       0.14488810
    83  C          0.27085000       0.86301100       0.64488810
    84  C          0.22915000       0.36301100       0.85511190
    85  H          0.62600000       0.16990000       0.39930000
    86  H          0.87400000       0.66990000       0.10070000
    87  H          0.37400000       0.83010000       0.60070000
    88  H          0.12600000       0.33010000       0.89930000
    89  H          0.66300000       0.13660000       0.26030000
    90  H          0.83700000       0.63660000       0.23970000
    91  H          0.33700000       0.86340000       0.73970000
    92  H          0.16300000       0.36340000       0.76030000
    93  H          0.95750000       0.14200000       0.36480000
    94  H          0.54250000       0.64200000       0.13520000
    95  H          0.04250000       0.85800000       0.63520000
    96  H          0.45750000       0.35800000       0.86480000
    97  C          0.63924000       0.07974800       0.41731160
    98  C          0.86076000       0.57974800       0.08268840
    99  C          0.36076000       0.92025200       0.58268840
   100  C          0.13924000       0.42025200       0.91731160
   101  H          0.67740000      -0.00531000       0.40120000
   102  H          0.82260000       0.49469000       0.09880000
   103  H          0.32260000       0.00531000       0.59880000
   104  H          0.17740000       0.50531000       0.90120000
   105  H          0.85250000       0.03221000       0.29620000
   106  H          0.64750000       0.53221000       0.20380000
   107  H          0.14750000       0.96779000       0.70380000
   108  H          0.35250000       0.46779000       0.79620000
