data_PEFGEO
_symmetry_space_group_name_H-M    'P1'
_symmetry_Int_Tables_number       1
loop_
_symmetry_equiv_pos_site_id
_symmetry_equiv_pos_as_xyz
1 x,y,z
_cell_length_a                   9.64002
_cell_length_b                   10.44772
_cell_length_c                   10.40323
_cell_angle_alpha                90.0
_cell_angle_beta                 107.9083
_cell_angle_gamma                90.0
loop_
_atom_site_label
_atom_site_type_symbol
_atom_site_fract_x
_atom_site_fract_y
_atom_site_fract_z
     1  C          0.74016160       0.48630150       0.48154850
     2  C          0.25983840       0.98630150       0.01845150
     3  C          0.25983840       0.51369850       0.51845150
     4  C          0.74016160       0.01369850       0.98154850
     5  O          0.60519900       0.33079900       0.56214200
     6  O          0.39480100       0.83079900       0.93785800
     7  O          0.39480100       0.66920100       0.43785800
     8  O          0.60519900       0.16920100       0.06214200
     9  N          0.54041120       0.36263120       0.33832890
    10  N          0.45958880       0.86263120       0.16167110
    11  N          0.45958880       0.63736880       0.66167110
    12  N          0.54041120       0.13736880       0.83832890
    13  C          0.62354130       0.38783120       0.46237880
    14  C          0.37645870       0.88783120       0.03762120
    15  C          0.37645870       0.61216880       0.53762120
    16  C          0.62354130       0.11216880       0.96237880
    17  H          0.55441700       0.40291700       0.26968300
    18  H          0.44558300       0.90291700       0.23031700
    19  H          0.44558300       0.59708300       0.73031700
    20  H          0.55441700       0.09708300       0.76968300
    21  H          0.47251800       0.29921800       0.32298400
    22  H          0.52748200       0.79921800       0.17701600
    23  H          0.52748200       0.70078200       0.67701600
    24  H          0.47251800       0.20078200       0.82298400
    25  H          0.73191800       0.54091800       0.40168100
    26  H          0.26808200       0.04091800       0.09831900
    27  H          0.26808200       0.45908200       0.59831900
    28  H          0.73191800       0.95908200       0.90168100
    29  H          0.83520000       0.44420000       0.50080000
    30  H          0.16480000       0.94420000      -0.00080000
    31  H          0.16480000       0.55580000       0.49920000
    32  H          0.83520000       0.05580000       0.00080000
    33  H          0.74320000       0.53851900       0.55480000
    34  H          0.25680000       0.03851900       0.94520000
    35  H          0.25680000       0.46148100       0.44520000
    36  H          0.74320000       0.96148100       0.05480000
    37  O          0.67756900       0.66219900       0.16992800
    38  O          0.32243100       0.16219900       0.33007200
    39  O          0.32243100       0.33780100       0.83007200
    40  O          0.67756900       0.83780100       0.66992800
    41  O          0.09114900       0.34024900       0.25238800
    42  O          0.90885100       0.84024900       0.24761200
    43  O          0.90885100       0.65975100       0.74761200
    44  O          0.09114900       0.15975100       0.75238800
    45  O          0.83429100       0.29554900       0.78795100
    46  O          0.16570900       0.79554900       0.71204900
    47  O          0.16570900       0.70445100       0.21204900
    48  O          0.83429100       0.20445100       0.28795100
    49  O          0.05728900       0.22883900       0.00731900
    50  O          0.94271100       0.72883900       0.49268100
    51  O          0.94271100       0.77116100      -0.00731900
    52  O          0.05728900       0.27116100       0.50731900
    53  O          0.56001100       0.63487900       0.95012100
    54  O          0.43998900       0.13487900       0.54987900
    55  O          0.43998900       0.36512100       0.04987900
    56  O          0.56001100       0.86512100       0.45012100
    57  C          0.95897130       0.31985120       0.01650120
    58  C          0.04102870       0.81985120       0.48349880
    59  C          0.04102870       0.68014880       0.98349880
    60  C          0.95897130       0.18014880       0.51650120
    61  C          0.76521120       0.50538120       0.04615120
    62  C          0.23478880       0.00538120       0.45384880
    63  C          0.23478880       0.49461880       0.95384880
    64  C          0.76521120      -0.00538120       0.54615120
    65  C          0.97726130       0.37616120       0.14175120
    66  C          0.02273870       0.87616120       0.35824880
    67  C          0.02273870       0.62383880       0.85824880
    68  C          0.97726130       0.12383880       0.64175120
    69  C          0.74479130       0.44854120       0.91988880
    70  C          0.25520870       0.94854120       0.58011120
    71  C          0.25520870       0.55145880       0.08011120
    72  C          0.74479130       0.05145880       0.41988880
    73  C          0.66539130       0.60728120       0.06249120
    74  C          0.33460870       0.10728120       0.43750880
    75  C          0.33460870       0.39271880       0.93750880
    76  C          0.66539130       0.89271880       0.56249120
    77  C          0.88148130       0.46942120       0.15702120
    78  C          0.11851870       0.96942120       0.34297880
    79  C          0.11851870       0.53057880       0.84297880
    80  C          0.88148130       0.03057880       0.65702120
    81  C          0.84183130       0.35631120       0.90557880
    82  C          0.15816870       0.85631120       0.59442120
    83  C          0.15816870       0.64368880       0.09442120
    84  C          0.84183130       0.14368880       0.40557880
    85  H          0.89671400       0.50741400       0.24421400
    86  H          0.10328600       0.00741400       0.25578600
    87  H          0.10328600       0.49258600       0.75578600
    88  H          0.89671400      -0.00741400       0.74421400
    89  H          0.66591600       0.47251400       0.84078500
    90  H          0.33408400       0.97251400       0.65921500
    91  H          0.33408400       0.52748600       0.15921500
    92  H          0.66591600       0.02748600       0.34078500
    93  H          0.04161700       0.21411700       0.92348100
    94  H          0.95838300       0.71411700       0.57651900
    95  H          0.95838300       0.78588300       0.07651900
    96  H          0.04161700       0.28588300       0.42348100
    97  H          0.14020000       0.28020000       0.23061800
    98  H          0.85980000       0.78020000       0.26938200
    99  H          0.85980000       0.71980000       0.76938200
   100  H          0.14020000       0.21980000       0.73061800
   101  H          0.75620000       0.31831900       0.71980000
   102  H          0.24380000       0.81831900       0.78020000
   103  H          0.24380000       0.68168100       0.28020000
   104  H          0.75620000       0.18168100       0.21980000
   105  H          0.50520000       0.71020000       0.95980000
   106  H          0.49480000       0.21020000       0.54020000
   107  H          0.49480000       0.28980000       0.04020000
   108  H          0.50520000       0.78980000       0.45980000
