data_PEFGIR01
_symmetry_space_group_name_H-M    'P1'
_symmetry_Int_Tables_number       1
loop_
_symmetry_equiv_pos_site_id
_symmetry_equiv_pos_as_xyz
1 x,y,z
_cell_length_a                   8.15879
_cell_length_b                   14.432615
_cell_length_c                   10.565111
_cell_angle_alpha                90.0
_cell_angle_beta                 90.12401
_cell_angle_gamma                90.0
loop_
_atom_site_label
_atom_site_type_symbol
_atom_site_fract_x
_atom_site_fract_y
_atom_site_fract_z
     1  O          0.00000000       0.32679700       0.25000000
     2  O          0.50000000       0.82679700       0.25000000
     3  O         -0.00000000       0.67320300       0.75000000
     4  O          0.50000000       0.17320300       0.75000000
     5  C          0.31459110       0.34705600       0.37141900
     6  C          0.68540890       0.34705600       0.12858100
     7  C          0.81459110       0.84705600       0.37141900
     8  C          0.18540890       0.84705600       0.12858100
     9  C          0.68540890       0.65294400       0.62858100
    10  C          0.31459110       0.65294400       0.87141900
    11  C          0.18540890       0.15294400       0.62858100
    12  C          0.81459110       0.15294400       0.87141900
    13  N          0.10716100       0.46408600       0.32042800
    14  N          0.89283900       0.46408600       0.17957200
    15  N          0.60716100       0.96408600       0.32042800
    16  N          0.39283900       0.96408600       0.17957200
    17  N          0.89283900       0.53591400       0.67957200
    18  N          0.10716100       0.53591400       0.82042800
    19  N          0.39283900       0.03591400       0.67957200
    20  N          0.60716100       0.03591400       0.82042800
    21  C         -0.00000000       0.41114900       0.25000000
    22  C          0.50000000       0.91114900       0.25000000
    23  C         -0.00000000       0.58885100       0.75000000
    24  C          0.50000000       0.08885100       0.75000000
    25  N          0.59428120       0.16744600       0.39314900
    26  N          0.40571880       0.16744600       0.10685100
    27  N          0.09428120       0.66744600       0.39314900
    28  N          0.90571880       0.66744600       0.10685100
    29  N          0.40571880       0.83255400       0.60685100
    30  N          0.59428120       0.83255400       0.89314900
    31  N          0.90571880       0.33255400       0.60685100
    32  N          0.09428120       0.33255400       0.89314900
    33  C          0.37288120       0.43694700       0.60122900
    34  C          0.62711880       0.43694700       0.89877100
    35  C          0.87288120       0.93694700       0.60122900
    36  C          0.12711880       0.93694700       0.89877100
    37  C          0.62711880       0.56305300       0.39877100
    38  C          0.37288120       0.56305300       0.10122900
    39  C          0.12711880       0.06305300       0.39877100
    40  C          0.87288120       0.06305300       0.10122900
    41  C          0.52260120       0.23194700       0.42358900
    42  C          0.47739880       0.23194700       0.07641100
    43  C          0.02260120       0.73194700       0.42358900
    44  C          0.97739880       0.73194700       0.07641100
    45  C          0.47739880       0.76805300       0.57641100
    46  C          0.52260120       0.76805300       0.92358900
    47  C          0.97739880       0.26805300       0.57641100
    48  C          0.02260120       0.26805300       0.92358900
    49  C          0.25658120       0.47113700       0.51742900
    50  C          0.74341880       0.47113700       0.98257100
    51  C          0.75658120       0.97113700       0.51742900
    52  C          0.24341880       0.97113700       0.98257100
    53  C          0.74341880       0.52886300       0.48257100
    54  C          0.25658120       0.52886300       0.01742900
    55  C          0.24341880       0.02886300       0.48257100
    56  C          0.75658120       0.02886300       0.01742900
    57  C          0.43159110       0.31401600       0.45726900
    58  C          0.56840890       0.31401600       0.04273100
    59  C          0.93159110       0.81401600       0.45726900
    60  C          0.06840890       0.81401600       0.04273100
    61  C          0.56840890       0.68598400       0.54273100
    62  C          0.43159110       0.68598400       0.95726900
    63  C          0.06840890       0.18598400       0.54273100
    64  C          0.93159110       0.18598400       0.95726900
    65  C          0.22570110       0.42604600       0.40278800
    66  C          0.77429890       0.42604600       0.09721200
    67  C          0.72570110       0.92604600       0.40278800
    68  C          0.27429890       0.92604600       0.09721200
    69  C          0.77429890       0.57395400       0.59721200
    70  C          0.22570110       0.57395400       0.90278800
    71  C          0.27429890       0.07395400       0.59721200
    72  C          0.72570110       0.07395400       0.90278800
    73  C          0.46169120       0.35774700       0.57276900
    74  C          0.53830880       0.35774700       0.92723100
    75  C          0.96169120       0.85774700       0.57276900
    76  C          0.03830880       0.85774700       0.92723100
    77  C          0.53830880       0.64225300       0.42723100
    78  C          0.46169120       0.64225300       0.07276900
    79  C          0.03830880       0.14225300       0.42723100
    80  C          0.96169120       0.14225300       0.07276900
    81  H          0.29551600       0.31568000       0.29191200
    82  H          0.70448400       0.31568000       0.20808800
    83  H          0.79551600       0.81568000       0.29191200
    84  H          0.20448400       0.81568000       0.20808800
    85  H          0.70448400       0.68432000       0.70808800
    86  H          0.29551600       0.68432000       0.79191200
    87  H          0.20448400       0.18432000       0.70808800
    88  H          0.79551600       0.18432000       0.79191200
    89  H          0.19481700       0.52619000       0.53521200
    90  H          0.80518300       0.52619000       0.96478800
    91  H          0.69481700       0.02619000       0.53521200
    92  H          0.30518300       0.02619000       0.96478800
    93  H          0.80518300       0.47381000       0.46478800
    94  H          0.19481700       0.47381000       0.03521200
    95  H          0.30518300       0.97381000       0.46478800
    96  H          0.69481700       0.97381000       0.03521200
    97  H          0.39131700       0.46891000       0.68081400
    98  H          0.60868300       0.46891000       0.81918600
    99  H          0.89131700       0.96891000       0.68081400
   100  H          0.10868300       0.96891000       0.81918600
   101  H          0.60868300       0.53109000       0.31918600
   102  H          0.39131700       0.53109000       0.18081400
   103  H          0.10868300       0.03109000       0.31918600
   104  H          0.89131700       0.03109000       0.18081400
   105  H          0.54421800       0.33409000       0.62981300
   106  H          0.45578200       0.33409000       0.87018700
   107  H          0.04421800       0.83409000       0.62981300
   108  H          0.95578200       0.83409000       0.87018700
   109  H          0.45578200       0.66591000       0.37018700
   110  H          0.54421800       0.66591000       0.12981300
   111  H          0.95578200       0.16591000       0.37018700
   112  H          0.04421800       0.16591000       0.12981300
   113  H          0.08521700       0.52291100       0.32951300
   114  H          0.91478300       0.52291100       0.17048700
   115  H          0.58521700       0.02291100       0.32951300
   116  H          0.41478300       0.02291100       0.17048700
   117  H          0.91478300       0.47708900       0.67048700
   118  H          0.08521700       0.47708900       0.82951300
   119  H          0.41478300       0.97708900       0.67048700
   120  H          0.58521700       0.97708900       0.82951300
