data_PEFGIR
_symmetry_space_group_name_H-M    'P1'
_symmetry_Int_Tables_number       1
loop_
_symmetry_equiv_pos_site_id
_symmetry_equiv_pos_as_xyz
1 x,y,z
_cell_length_a                   4.77495
_cell_length_b                   30.9293
_cell_length_c                   8.80919
_cell_angle_alpha                90.0
_cell_angle_beta                 91.4582
_cell_angle_gamma                90.0
loop_
_atom_site_label
_atom_site_type_symbol
_atom_site_fract_x
_atom_site_fract_y
_atom_site_fract_z
     1  O          0.03402000       0.68862400       0.25526150
     2  O          0.96598000       0.18862400       0.24473850
     3  O          0.96598000       0.31137600       0.74473850
     4  O          0.03402000       0.81137600       0.75526150
     5  N          0.68757000       0.64098500       0.31988180
     6  N          0.31243000       0.14098500       0.18011820
     7  N          0.31243000       0.35901500       0.68011820
     8  N          0.68757000       0.85901500       0.81988180
     9  H          0.51930000       0.63940000       0.35800000
    10  H          0.48070000       0.13940000       0.14200000
    11  H          0.48070000       0.36060000       0.64200000
    12  H          0.51930000       0.86060000       0.85800000
    13  C          0.89627000       0.82176600       0.24194180
    14  C          0.10373000       0.32176600       0.25805820
    15  C          0.10373000       0.17823400       0.75805820
    16  C          0.89627000       0.67823400       0.74194180
    17  N          0.60987000       0.71348500       0.33339170
    18  N          0.39013000       0.21348500       0.16660830
    19  N          0.39013000       0.28651500       0.66660830
    20  N          0.60987000       0.78651500       0.83339170
    21  H          0.44030000       0.70540000       0.35800000
    22  H          0.55970000       0.20540000       0.14200000
    23  H          0.55970000       0.29460000       0.64200000
    24  H          0.44030000       0.79460000       0.85800000
    25  C          0.66617000       0.75816500       0.33293180
    26  C          0.33383000       0.25816500       0.16706820
    27  C          0.33383000       0.24183500       0.66706820
    28  C          0.66617000       0.74183500       0.83293180
    29  C          0.85597000       0.77719600       0.23636180
    30  C          0.14403000       0.27719600       0.26363820
    31  C          0.14403000       0.22280400       0.76363820
    32  C          0.85597000       0.72280400       0.73636180
    33  H          0.95730000       0.76000000       0.16730000
    34  H          0.04270000       0.26000000       0.33270000
    35  H          0.04270000       0.24000000       0.83270000
    36  H          0.95730000       0.74000000       0.66730000
    37  C          0.79637000       0.68145500       0.29886190
    38  C          0.20363000       0.18145500       0.20113810
    39  C          0.20363000       0.31854500       0.70113810
    40  C          0.79637000       0.81854500       0.79886190
    41  C          0.55976000       0.82843600       0.43602000
    42  C          0.44024000       0.32843600       0.06398000
    43  C          0.44024000       0.17156400       0.56398000
    44  C          0.55976000       0.67156400       0.93602000
    45  H          0.45720000       0.84570000       0.50430000
    46  H          0.54280000       0.34570000      -0.00430000
    47  H          0.54280000       0.15430000       0.49570000
    48  H          0.45720000       0.65430000       0.00430000
    49  C          0.51797000       0.78429600       0.43302190
    50  C          0.48203000       0.28429600       0.06697810
    51  C          0.48203000       0.21570400       0.56697810
    52  C          0.51797000       0.71570400       0.93302190
    53  H          0.38770000       0.77150000       0.49930000
    54  H          0.61230000       0.27150000       0.00070000
    55  H          0.61230000       0.22850000       0.50070000
    56  H          0.38770000       0.72850000      -0.00070000
    57  C          0.01823000       0.59826600       0.17422000
    58  C         -0.01823000       0.09826600       0.32578000
    59  C         -0.01823000       0.40173400       0.82578000
    60  C          0.01823000       0.90173400       0.67422000
    61  H          0.07750000       0.62320000       0.12100000
    62  H          0.92250000       0.12320000       0.37900000
    63  H          0.92250000       0.37680000       0.87900000
    64  H          0.07750000       0.87680000       0.62100000
    65  N          0.24993000       0.85618600       0.06092190
    66  N          0.75007000       0.35618600       0.43907810
    67  N          0.75007000       0.14381400       0.93907810
    68  N          0.24993000       0.64381400       0.56092190
    69  C          0.12934000       0.55786600       0.14062000
    70  C          0.87066000       0.05786600       0.35938000
    71  C          0.87066000       0.44213400       0.85938000
    72  C          0.12934000       0.94213400       0.64062000
    73  C          0.09364000       0.84110600       0.14122000
    74  C          0.90636000       0.34110600       0.35878000
    75  C          0.90636000       0.15889400       0.85878000
    76  C          0.09364000       0.65889400       0.64122000
    77  C          0.81997000       0.60178500       0.28632000
    78  C          0.18003000       0.10178500       0.21368000
    79  C          0.18003000       0.39821500       0.71368000
    80  C          0.81997000       0.89821500       0.78632000
    81  C          0.74876000       0.84793600       0.34102000
    82  C          0.25124000       0.34793600       0.15898000
    83  C          0.25124000       0.15206400       0.65898000
    84  C          0.74876000       0.65206400       0.84102000
    85  H          0.77720000       0.87830000       0.34320000
    86  H          0.22280000       0.37830000       0.15680000
    87  H          0.22280000       0.12170000       0.65680000
    88  H          0.77720000       0.62170000       0.84320000
    89  C          0.04574000       0.52083600       0.21632000
    90  C          0.95426000       0.02083600       0.28368000
    91  C          0.95426000       0.47916400       0.78368000
    92  C          0.04574000       0.97916400       0.71632000
    93  H          0.12300000       0.49340000       0.19240000
    94  H          0.87700000       0.99340000       0.30760000
    95  H          0.87700000       0.50660000       0.80760000
    96  H          0.12300000       0.00660000       0.69240000
    97  N          0.48534000       0.55457500       0.92428000
    98  N          0.51466000       0.05457500       0.57572000
    99  N          0.51466000       0.44542500       0.07572000
   100  N          0.48534000       0.94542500       0.42428000
   101  C          0.73606000       0.56461600       0.36262000
   102  C          0.26394000       0.06461600       0.13738000
   103  C          0.26394000       0.43538400       0.63738000
   104  C          0.73606000       0.93538400       0.86262000
   105  H          0.60130000       0.56670000       0.43970000
   106  H          0.39870000       0.06670000       0.06030000
   107  H          0.39870000       0.43330000       0.56030000
   108  H          0.60130000       0.93330000       0.93970000
   109  C          0.84776000       0.52474600       0.32693000
   110  C          0.15224000       0.02474600       0.17307000
   111  C          0.15224000       0.47525400       0.67307000
   112  C          0.84776000       0.97525400       0.82693000
   113  H          0.78750000       0.49970000       0.37930000
   114  H          0.21250000      -0.00030000       0.12070000
   115  H          0.21250000       0.50030000       0.62070000
   116  H          0.78750000       0.00030000       0.87930000
   117  C          0.33004000       0.55540600       0.02072000
   118  C          0.66996000       0.05540600       0.47928000
   119  C          0.66996000       0.44459400       0.97928000
   120  C          0.33004000       0.94459400       0.52072000
