data_PEFGEO03
_symmetry_space_group_name_H-M    'P1'
_symmetry_Int_Tables_number       1
loop_
_symmetry_equiv_pos_site_id
_symmetry_equiv_pos_as_xyz
1 x,y,z
_cell_length_a                   28.3426
_cell_length_b                   4.90274
_cell_length_c                   20.1134
_cell_angle_alpha                90.0
_cell_angle_beta                 134.534
_cell_angle_gamma                90.0
loop_
_atom_site_label
_atom_site_type_symbol
_atom_site_fract_x
_atom_site_fract_y
_atom_site_fract_z
     1  O          0.03840500       0.15482000       0.47335700
     2  O          0.96159500       0.15482000       0.02664300
     3  O          0.53840500       0.65482000       0.47335700
     4  O          0.46159500       0.65482000       0.02664300
     5  O          0.96159500       0.84518000       0.52664300
     6  O          0.03840500       0.84518000       0.97335700
     7  O          0.46159500       0.34518000       0.52664300
     8  O          0.53840500       0.34518000       0.97335700
     9  O          0.01455600       0.07182000       0.34284800
    10  O          0.98544400       0.07182000       0.15715200
    11  O          0.51455600       0.57182000       0.34284800
    12  O          0.48544400       0.57182000       0.15715200
    13  O          0.98544400       0.92818000       0.65715200
    14  O          0.01455600       0.92818000       0.84284800
    15  O          0.48544400       0.42818000       0.65715200
    16  O          0.51455600       0.42818000       0.84284800
    17  O          0.21775500       0.46288000       0.70028700
    18  O          0.78224500       0.46288000       0.79971300
    19  O          0.71775500       0.96288000       0.70028700
    20  O          0.28224500       0.96288000       0.79971300
    21  O          0.78224500       0.53712000       0.29971300
    22  O          0.21775500       0.53712000       0.20028700
    23  O          0.28224500       0.03712000       0.29971300
    24  O          0.71775500       0.03712000       0.20028700
    25  O          0.24369500       0.21478000       0.60603800
    26  O          0.75630500       0.21478000       0.89396200
    27  O          0.74369500       0.71478000       0.60603800
    28  O          0.25630500       0.71478000       0.89396200
    29  O          0.75630500       0.78522000       0.39396200
    30  O          0.24369500       0.78522000       0.10603800
    31  O          0.25630500       0.28522000       0.39396200
    32  O          0.74369500       0.28522000       0.10603800
    33  C          0.19598700       0.41187000       0.56127110
    34  C          0.80401300       0.41187000       0.93872890
    35  C          0.69598700       0.91187000       0.56127110
    36  C          0.30401300       0.91187000       0.93872890
    37  C          0.80401300       0.58813000       0.43872890
    38  C          0.19598700       0.58813000       0.06127110
    39  C          0.30401300       0.08813000       0.43872890
    40  C          0.69598700       0.08813000       0.06127110
    41  O          0.17492500       0.35558000       0.42658800
    42  O          0.82507500       0.35558000       0.07341200
    43  O          0.67492500       0.85558000       0.42658800
    44  O          0.32507500       0.85558000       0.07341200
    45  O          0.82507500       0.64442000       0.57341200
    46  O          0.17492500       0.64442000       0.92658800
    47  O          0.32507500       0.14442000       0.57341200
    48  O          0.67492500       0.14442000       0.92658800
    49  C          0.04875700       0.02923000       0.43182110
    50  C          0.95124300       0.02923000       0.06817890
    51  C          0.54875700       0.52923000       0.43182110
    52  C          0.45124300       0.52923000       0.06817890
    53  C          0.95124300       0.97077000       0.56817890
    54  C          0.04875700       0.97077000       0.93182110
    55  C          0.45124300       0.47077000       0.56817890
    56  C          0.54875700       0.47077000       0.93182110
    57  C          0.13584700       0.73857000       0.56785110
    58  C          0.86415300       0.73857000       0.93214890
    59  C          0.63584700       0.23857000       0.56785110
    60  C          0.36415300       0.23857000       0.93214890
    61  C          0.86415300       0.26143000       0.43214890
    62  C          0.13584700       0.26143000       0.06785110
    63  C          0.36415300       0.76143000       0.43214890
    64  C          0.63584700       0.76143000       0.06785110
    65  C          0.09996700       0.81457000       0.47622100
    66  C          0.90003300       0.81457000       0.02377900
    67  C          0.59996700       0.31457000       0.47622100
    68  C          0.40003300       0.31457000       0.02377900
    69  C          0.90003300       0.18543000       0.52377900
    70  C          0.09996700       0.18543000       0.97622100
    71  C          0.40003300       0.68543000       0.52377900
    72  C          0.59996700       0.68543000       0.97622100
    73  C          0.11149700       0.68817000       0.42649110
    74  C          0.88850300       0.68817000       0.07350890
    75  C          0.61149700       0.18817000       0.42649110
    76  C          0.38850300       0.18817000       0.07350890
    77  C          0.88850300       0.31183000       0.57350890
    78  C          0.11149700       0.31183000       0.92649110
    79  C          0.38850300       0.81183000       0.57350890
    80  C          0.61149700       0.81183000       0.92649110
    81  C          0.15973700       0.48837000       0.46953110
    82  C          0.84026300       0.48837000       0.03046890
    83  C          0.65973700      -0.01163000       0.46953110
    84  C          0.34026300      -0.01163000       0.03046890
    85  C          0.84026300       0.51163000       0.53046890
    86  C          0.15973700       0.51163000       0.96953110
    87  C          0.34026300       0.01163000       0.53046890
    88  C          0.65973700       0.01163000       0.96953110
    89  C          0.18323700       0.53587000       0.60980100
    90  C          0.81676300       0.53587000       0.89019900
    91  C          0.68323700       0.03587000       0.60980100
    92  C          0.31676300       0.03587000       0.89019900
    93  C          0.81676300       0.46413000       0.39019900
    94  C          0.18323700       0.46413000       0.10980100
    95  C          0.31676300       0.96413000       0.39019900
    96  C          0.68323700       0.96413000       0.10980100
    97  H          0.08618000       0.73770000       0.36221200
    98  H          0.91382000       0.73770000       0.13778800
    99  H          0.58618000       0.23770000       0.36221200
   100  H          0.41382000       0.23770000       0.13778800
   101  H          0.91382000       0.26230000       0.63778800
   102  H          0.08618000       0.26230000       0.86221200
   103  H          0.41382000       0.76230000       0.63778800
   104  H          0.58618000       0.76230000       0.86221200
   105  H          0.12658000       0.82570000       0.60161200
   106  H          0.87342000       0.82570000       0.89838800
   107  H          0.62658000       0.32570000       0.60161200
   108  H          0.37342000       0.32570000       0.89838800
   109  H          0.87342000       0.17430000       0.39838800
   110  H          0.12658000       0.17430000       0.10161200
   111  H          0.37342000       0.67430000       0.39838800
   112  H          0.62658000       0.67430000       0.10161200
   113  H          0.25011100       0.16850000       0.57281600
   114  H          0.74988900       0.16850000       0.92718400
   115  H          0.75011100       0.66850000       0.57281600
   116  H          0.24988900       0.66850000       0.92718400
   117  H          0.74988900       0.83150000       0.42718400
   118  H          0.25011100       0.83150000       0.07281600
   119  H          0.24988900       0.33150000       0.42718400
   120  H          0.75011100       0.33150000       0.07281600
   121  H          0.23871100       0.31150000       0.71531500
   122  H          0.76128900       0.31150000       0.78468500
   123  H          0.73871100       0.81150000       0.71531500
   124  H          0.26128900       0.81150000       0.78468500
   125  H          0.76128900       0.68850000       0.28468500
   126  H          0.23871100       0.68850000       0.21531500
   127  H          0.26128900       0.18850000       0.28468500
   128  H          0.73871100       0.18850000       0.21531500
   129  H          0.14141100       0.38750000       0.36401700
   130  H          0.85858900       0.38750000       0.13598300
   131  H          0.64141100       0.88750000       0.36401700
   132  H          0.35858900       0.88750000       0.13598300
   133  H          0.85858900       0.61250000       0.63598300
   134  H          0.14141100       0.61250000       0.86401700
   135  H          0.35858900       0.11250000       0.63598300
   136  H          0.64141100       0.11250000       0.86401700
   137  H          0.98268800       0.21450000       0.31571700
   138  H          0.01731200       0.21450000       0.18428300
   139  H          0.48268800       0.71450000       0.31571700
   140  H          0.51731200       0.71450000       0.18428300
   141  H          0.01731200       0.78550000       0.68428300
   142  H          0.98268800       0.78550000       0.81571700
   143  H          0.51731200       0.28550000       0.68428300
   144  H          0.48268800       0.28550000       0.81571700
   145  O          0.41722500       0.06808000       0.75433700
   146  O          0.58277500       0.06808000       0.74566300
   147  O          0.91722500       0.56808000       0.75433700
   148  O          0.08277500       0.56808000       0.74566300
   149  O          0.58277500       0.93192000       0.24566300
   150  O          0.41722500       0.93192000       0.25433700
   151  O          0.08277500       0.43192000       0.24566300
   152  O          0.91722500       0.43192000       0.25433700
   153  C          0.40769700       0.89767000       0.79098110
   154  C          0.59230300       0.89767000       0.70901890
   155  C          0.90769700       0.39767000       0.79098110
   156  C          0.09230300       0.39767000       0.70901890
   157  C          0.59230300       0.10233000       0.20901890
   158  C          0.40769700       0.10233000       0.29098110
   159  C          0.09230300       0.60233000       0.20901890
   160  C          0.90769700       0.60233000       0.29098110
   161  N          0.44421700       0.90287000       0.88124100
   162  N          0.55578300       0.90287000       0.61875900
   163  N          0.94421700       0.40287000       0.88124100
   164  N          0.05578300       0.40287000       0.61875900
   165  N          0.55578300       0.09713000       0.11875900
   166  N          0.44421700       0.09713000       0.38124100
   167  N          0.05578300       0.59713000       0.11875900
   168  N          0.94421700       0.59713000       0.38124100
   169  C          0.35376800       0.69057000       0.73200110
   170  C          0.64623200       0.69057000       0.76799890
   171  C          0.85376800       0.19057000       0.73200110
   172  C          0.14623200       0.19057000       0.76799890
   173  C          0.64623200       0.30943000       0.26799890
   174  C          0.35376800       0.30943000       0.23200110
   175  C          0.14623200       0.80943000       0.26799890
   176  C          0.85376800       0.80943000       0.23200110
   177  H          0.31100000       0.77760000       0.69860000
   178  H          0.68900000       0.77760000       0.80140000
   179  H          0.81100000       0.27760000       0.69860000
   180  H          0.18900000       0.27760000       0.80140000
   181  H          0.68900000       0.22240000       0.30140000
   182  H          0.31100000       0.22240000       0.19860000
   183  H          0.18900000       0.72240000       0.30140000
   184  H          0.81100000       0.72240000       0.19860000
   185  H          0.36120000       0.54450000       0.77180000
   186  H          0.63880000       0.54450000       0.72820000
   187  H          0.86120000       0.04450000       0.77180000
   188  H          0.13880000       0.04450000       0.72820000
   189  H          0.63880000       0.45550000       0.22820000
   190  H          0.36120000       0.45550000       0.27180000
   191  H          0.13880000       0.95550000       0.22820000
   192  H          0.86120000       0.95550000       0.27180000
   193  H          0.35370000       0.61370000       0.68700000
   194  H          0.64630000       0.61370000       0.81300000
   195  H          0.85370000       0.11370000       0.68700000
   196  H          0.14630000       0.11370000       0.81300000
   197  H          0.64630000       0.38630000       0.31300000
   198  H          0.35370000       0.38630000       0.18700000
   199  H          0.14630000       0.88630000       0.31300000
   200  H          0.85370000       0.88630000       0.18700000
   201  H          0.43819000       0.78260000       0.90781300
   202  H          0.56181000       0.78260000       0.59218700
   203  H          0.93819000       0.28260000       0.90781300
   204  H          0.06181000       0.28260000       0.59218700
   205  H          0.56181000       0.21740000       0.09218700
   206  H          0.43819000       0.21740000       0.40781300
   207  H          0.06181000       0.71740000       0.09218700
   208  H          0.93819000       0.71740000       0.40781300
   209  H          0.47711000       0.03660000       0.91861400
   210  H          0.52289000       0.03660000       0.58138600
   211  H          0.97711000       0.53660000       0.91861400
   212  H          0.02289000       0.53660000       0.58138600
   213  H          0.52289000       0.96340000       0.08138600
   214  H          0.47711000       0.96340000       0.41861400
   215  H          0.02289000       0.46340000       0.08138600
   216  H          0.97711000       0.46340000       0.41861400
