data_PEJJOF02
_symmetry_space_group_name_H-M    'P1'
_symmetry_Int_Tables_number       1
loop_
_symmetry_equiv_pos_site_id
_symmetry_equiv_pos_as_xyz
1 x,y,z
_cell_length_a                   19.840215
_cell_length_b                   10.81018
_cell_length_c                   7.78236
_cell_angle_alpha                90.0
_cell_angle_beta                 90.0
_cell_angle_gamma                90.0
loop_
_atom_site_label
_atom_site_type_symbol
_atom_site_fract_x
_atom_site_fract_y
_atom_site_fract_z
     1  Cl         0.24838717       0.69358700       0.22331500
     2  Cl         0.75161283       0.69358700       0.27668500
     3  Cl         0.74838717       0.19358700       0.22331500
     4  Cl         0.25161283       0.19358700       0.27668500
     5  Cl         0.75161283       0.30641300       0.77668500
     6  Cl         0.24838717       0.30641300       0.72331500
     7  Cl         0.25161283       0.80641300       0.77668500
     8  Cl         0.74838717       0.80641300       0.72331500
     9  C          0.50000000       0.00179180       0.25000000
    10  C         -0.00000000       0.50179180       0.25000000
    11  C          0.50000000      -0.00179180       0.75000000
    12  C         -0.00000000       0.49820820       0.75000000
    13  C          0.44314700       0.20066120       0.18647170
    14  C          0.55685300       0.20066120       0.31352830
    15  C          0.94314700       0.70066120       0.18647170
    16  C          0.05685300       0.70066120       0.31352830
    17  C          0.55685300       0.79933880       0.81352830
    18  C          0.44314700       0.79933880       0.68647170
    19  C          0.05685300       0.29933880       0.81352830
    20  C          0.94314700       0.29933880       0.68647170
    21  H          0.40440000       0.15740000       0.14720000
    22  H          0.59560000       0.15740000       0.35280000
    23  H          0.90440000       0.65740000       0.14720000
    24  H          0.09560000       0.65740000       0.35280000
    25  H          0.59560000       0.84260000       0.85280000
    26  H          0.40440000       0.84260000       0.64720000
    27  H          0.09560000       0.34260000       0.85280000
    28  H          0.90440000       0.34260000       0.64720000
    29  C          0.43681600       0.92905890       0.23787160
    30  C          0.56318400       0.92905890       0.26212840
    31  C          0.93681600       0.42905890       0.23787160
    32  C          0.06318400       0.42905890       0.26212840
    33  C          0.56318400       0.07094110       0.76212840
    34  C          0.43681600       0.07094110       0.73787160
    35  C          0.06318400       0.57094110       0.76212840
    36  C          0.93681600       0.57094110       0.73787160
    37  O          0.50000000       0.51033130       0.25000000
    38  O         -0.00000000       0.01033130       0.25000000
    39  O          0.50000000       0.48966870       0.75000000
    40  O         -0.00000000      -0.01033130       0.75000000
    41  C          0.32009700       0.78627870       0.22509180
    42  C          0.67990300       0.78627870       0.27490820
    43  C          0.82009700       0.28627870       0.22509180
    44  C          0.17990300       0.28627870       0.27490820
    45  C          0.67990300       0.21372130       0.77490820
    46  C          0.32009700       0.21372130       0.72509180
    47  C          0.17990300       0.71372130       0.77490820
    48  C          0.82009700       0.71372130       0.72509180
    49  C          0.50000000       0.12955170       0.25000000
    50  C         -0.00000000       0.62955170       0.25000000
    51  C          0.50000000       0.87044830       0.75000000
    52  C         -0.00000000       0.37044830       0.75000000
    53  C          0.44277700       0.32538130       0.18064170
    54  C          0.55722300       0.32538130       0.31935830
    55  C          0.94277700       0.82538130       0.18064170
    56  C          0.05722300       0.82538130       0.31935830
    57  C          0.55722300       0.67461870       0.81935830
    58  C          0.44277700       0.67461870       0.68064170
    59  C          0.05722300       0.17461870       0.81935830
    60  C          0.94277700       0.17461870       0.68064170
    61  C          0.37775600       0.96714880       0.32197160
    62  C          0.62224400       0.96714880       0.17802840
    63  C          0.87775600       0.46714880       0.32197160
    64  C          0.12224400       0.46714880       0.17802840
    65  C          0.62224400       0.03285120       0.67802840
    66  C          0.37775600       0.03285120       0.82197160
    67  C          0.12224400       0.53285120       0.67802840
    68  C          0.87775600       0.53285120       0.82197160
    69  H          0.37770000       0.04280000       0.38400000
    70  H          0.62230000       0.04280000       0.11600000
    71  H          0.87770000       0.54280000       0.38400000
    72  H          0.12230000       0.54280000       0.11600000
    73  H          0.62230000       0.95720000       0.61600000
    74  H          0.37770000       0.95720000       0.88400000
    75  H          0.12230000       0.45720000       0.61600000
    76  H          0.87770000       0.45720000       0.88400000
    77  C          0.31948700       0.89618870       0.31616170
    78  C          0.68051300       0.89618870       0.18383830
    79  C          0.81948700       0.39618870       0.31616170
    80  C          0.18051300       0.39618870       0.18383830
    81  C          0.68051300       0.10381130       0.68383830
    82  C          0.31948700       0.10381130       0.81616170
    83  C          0.18051300       0.60381130       0.68383830
    84  C          0.81948700       0.60381130       0.81616170
    85  H          0.27980000       0.92270000       0.37380000
    86  H          0.72020000       0.92270000       0.12620000
    87  H          0.77980000       0.42270000       0.37380000
    88  H          0.22020000       0.42270000       0.12620000
    89  H          0.72020000       0.07730000       0.62620000
    90  H          0.27980000       0.07730000       0.87380000
    91  H          0.22020000       0.57730000       0.62620000
    92  H          0.77980000       0.57730000       0.87380000
    93  C          0.43536700       0.81645880       0.14885170
    94  C          0.56463300       0.81645880       0.35114830
    95  C          0.93536700       0.31645880       0.14885170
    96  C          0.06463300       0.31645880       0.35114830
    97  C          0.56463300       0.18354120       0.85114830
    98  C          0.43536700       0.18354120       0.64885170
    99  C          0.06463300       0.68354120       0.85114830
   100  C          0.93536700       0.68354120       0.64885170
   101  H          0.47500000       0.78810000       0.09300000
   102  H          0.52500000       0.78810000       0.40700000
   103  H          0.97500000       0.28810000       0.09300000
   104  H          0.02500000       0.28810000       0.40700000
   105  H          0.52500000       0.21190000       0.90700000
   106  H          0.47500000       0.21190000       0.59300000
   107  H          0.02500000       0.71190000       0.90700000
   108  H          0.97500000       0.71190000       0.59300000
   109  C          0.37728700       0.74565880       0.14063170
   110  C          0.62271300       0.74565880       0.35936830
   111  C          0.87728700       0.24565880       0.14063170
   112  C          0.12271300       0.24565880       0.35936830
   113  C          0.62271300       0.25434120       0.85936830
   114  C          0.37728700       0.25434120       0.64063170
   115  C          0.12271300       0.75434120       0.85936830
   116  C          0.87728700       0.75434120       0.64063170
   117  H          0.37670000       0.67030000       0.07790000
   118  H          0.62330000       0.67030000       0.42210000
   119  H          0.87670000       0.17030000       0.07790000
   120  H          0.12330000       0.17030000       0.42210000
   121  H          0.62330000       0.32970000       0.92210000
   122  H          0.37670000       0.32970000       0.57790000
   123  H          0.12330000       0.82970000       0.92210000
   124  H          0.87670000       0.82970000       0.57790000
   125  C          0.38647700       0.39770130       0.10030190
   126  C          0.61352300       0.39770130       0.39969810
   127  C          0.88647700       0.89770130       0.10030190
   128  C          0.11352300       0.89770130       0.39969810
   129  C          0.61352300       0.60229870       0.89969810
   130  C          0.38647700       0.60229870       0.60030190
   131  C          0.11352300       0.10229870       0.89969810
   132  C          0.88647700       0.10229870       0.60030190
   133  H          0.35160000       0.34070000       0.05920000
   134  H          0.64840000       0.34070000       0.44080000
   135  H          0.85160000       0.84070000       0.05920000
   136  H          0.14840000       0.84070000       0.44080000
   137  H          0.64840000       0.65930000       0.94080000
   138  H          0.35160000       0.65930000       0.55920000
   139  H          0.14840000       0.15930000       0.94080000
   140  H          0.85160000       0.15930000       0.55920000
   141  H          0.40400000       0.44590000       0.00340000
   142  H          0.59600000       0.44590000       0.49660000
   143  H          0.90400000       0.94590000       0.00340000
   144  H          0.09600000       0.94590000       0.49660000
   145  H          0.59600000       0.55410000      -0.00340000
   146  H          0.40400000       0.55410000       0.50340000
   147  H          0.09600000       0.05410000      -0.00340000
   148  H          0.90400000       0.05410000       0.50340000
   149  H          0.36700000       0.45380000       0.18580000
   150  H          0.63300000       0.45380000       0.31420000
   151  H          0.86700000       0.95380000       0.18580000
   152  H          0.13300000       0.95380000       0.31420000
   153  H          0.63300000       0.54620000       0.81420000
   154  H          0.36700000       0.54620000       0.68580000
   155  H          0.13300000       0.04620000       0.81420000
   156  H          0.86700000       0.04620000       0.68580000
   157  C          0.50000000       0.39634180       0.25000000
   158  C         -0.00000000       0.89634180       0.25000000
   159  C          0.50000000       0.60365820       0.75000000
   160  C         -0.00000000       0.10365820       0.75000000
