data_PEJJOF
_symmetry_space_group_name_H-M    'P1'
_symmetry_Int_Tables_number       1
loop_
_symmetry_equiv_pos_site_id
_symmetry_equiv_pos_as_xyz
1 x,y,z
_cell_length_a                   7.51407
_cell_length_b                   8.13147
_cell_length_c                   15.238014
_cell_angle_alpha                97.02601
_cell_angle_beta                 101.48301
_cell_angle_gamma                104.05401
loop_
_atom_site_label
_atom_site_type_symbol
_atom_site_fract_x
_atom_site_fract_y
_atom_site_fract_z
     1  Cl         0.35134600       0.63830600       0.18162300
     2  Cl         0.64865400       0.36169400       0.81837700
     3  Cl        -0.01350300       0.72030400       0.96713700
     4  Cl         0.01350300       0.27969600       0.03286300
     5  O          0.77378160       0.86523850       0.59013800
     6  O          0.22621840       0.13476150       0.40986200
     7  C          0.73702000       0.02782000       0.34443110
     8  C          0.26298000       0.97218000       0.65556890
     9  C          0.71722000       0.07802000       0.26070110
    10  C          0.28278000       0.92198000       0.73929890
    11  C          0.66832000       0.93658000       0.09841110
    12  C          0.33168000       0.06342000       0.90158890
    13  H          0.54720000       0.95670000       0.08490000
    14  H          0.45280000       0.04330000       0.91510000
    15  C          0.62882000       0.21712000       0.24045110
    16  C          0.37118000       0.78288000       0.75954890
    17  C          0.76462000       0.91518000       0.51661110
    18  C          0.23538000       0.08482000       0.48338890
    19  C          0.76842000       0.86208000       0.35611110
    20  C          0.23158000       0.13792000       0.64388890
    21  H          0.78500000       0.79140000       0.30560000
    22  H          0.21500000       0.20860000       0.69440000
    23  C          0.77502000       0.80408000       0.43530110
    24  C          0.22498000       0.19592000       0.56469890
    25  C          0.78252000      -0.00700190       0.18644110
    26  C          0.21748000       0.00700190       0.81355890
    27  C          0.72392000       0.13482000       0.42479110
    28  C          0.27608000       0.86518000       0.57520890
    29  H          0.70190000       0.24370000       0.41930000
    30  H          0.29810000       0.75630000       0.58070000
    31  C          0.02712000       0.88888000       0.13591120
    32  C         -0.02712000       0.11112000       0.86408880
    33  H          0.15110000       0.87500000       0.14810000
    34  H          0.84890000       0.12500000       0.85190000
    35  C          0.96362000       0.96998000       0.20379110
    36  C          0.03638000       0.03002000       0.79620890
    37  H          0.04430000       0.01060000       0.26300000
    38  H          0.95570000      -0.01060000       0.73700000
    39  C          0.45912000       0.47672000       0.20347110
    40  C          0.54088000       0.52328000       0.79652890
    41  C          0.70292000       0.34012000       0.19088110
    42  C          0.29708000       0.65988000       0.80911890
    43  H          0.81200000       0.33410000       0.16950000
    44  H          0.18800000       0.66590000       0.83050000
    45  C          0.72852000       0.85188000       0.03045110
    46  C          0.27148000       0.14812000       0.96954890
    47  H          0.64840000       0.81030000       0.97120000
    48  H          0.35160000       0.18970000       0.02880000
    49  C          0.74152000       0.08732000       0.50715110
    50  C          0.25848000       0.91268000       0.49284890
    51  C          0.46532000       0.22642000       0.26921110
    52  C          0.53468000       0.77358000       0.73078890
    53  H          0.41140000       0.14230000       0.30160000
    54  H          0.58860000       0.85770000       0.69840000
    55  C          0.78632000       0.62508000       0.44492120
    56  C          0.21368000       0.37492000       0.55507880
    57  H          0.79770000       0.56530000       0.38730000
    58  H          0.20230000       0.43470000       0.61270000
    59  H          0.67170000       0.56180000       0.46060000
    60  H          0.32830000       0.43820000       0.53940000
    61  H          0.89690000       0.63130000       0.49320000
    62  H          0.10310000       0.36870000       0.50680000
    63  C          0.61922000       0.47012000       0.17264110
    64  C          0.38078000       0.52988000       0.82735890
    65  H          0.67080000       0.55370000       0.13940000
    66  H          0.32920000       0.44630000       0.86060000
    67  C          0.38092000       0.35562000       0.25126110
    68  C          0.61908000       0.64438000       0.74873890
    69  H          0.27050000       0.36130000       0.27150000
    70  H          0.72950000       0.63870000       0.72850000
    71  C          0.90873000       0.82878000       0.05065110
    72  C          0.09127000       0.17122000       0.94934890
    73  C          0.74022000       0.20312000       0.59119110
    74  C          0.25978000       0.79688000       0.40880890
    75  H          0.71760000       0.31070000       0.57530000
    76  H          0.28240000       0.68930000       0.42470000
    77  H          0.86250000       0.22880000       0.63490000
    78  H          0.13750000       0.77120000       0.36510000
    79  H          0.63980000       0.14580000       0.61840000
    80  H          0.36020000       0.85420000       0.38160000
