data_PEJJOF01
_symmetry_space_group_name_H-M    'P1'
_symmetry_Int_Tables_number       1
loop_
_symmetry_equiv_pos_site_id
_symmetry_equiv_pos_as_xyz
1 x,y,z
_cell_length_a                   7.563816
_cell_length_b                   12.6123
_cell_length_c                   18.2074
_cell_angle_alpha                90.0
_cell_angle_beta                 96.0923
_cell_angle_gamma                90.0
loop_
_atom_site_label
_atom_site_type_symbol
_atom_site_fract_x
_atom_site_fract_y
_atom_site_fract_z
     1  Cl         0.25314500       0.25290300       0.29016200
     2  Cl         0.74685500       0.75290300       0.20983800
     3  Cl         0.74685500       0.74709700       0.70983800
     4  Cl         0.25314500       0.24709700       0.79016200
     5  Cl         0.20319500       0.02931400       0.96248800
     6  Cl         0.79680500       0.52931400       0.53751200
     7  Cl         0.79680500       0.97068600       0.03751200
     8  Cl         0.20319500       0.47068600       0.46248800
     9  O          0.33821150       0.80593800       0.50943600
    10  O          0.66178850       0.30593800       0.99056400
    11  O          0.66178850       0.19406200       0.49056400
    12  O          0.33821150       0.69406200       0.00943600
    13  C          0.57331180       0.00413110       0.27016700
    14  C          0.42668820       0.50413110       0.22983300
    15  C          0.42668820      -0.00413110       0.72983300
    16  C          0.57331180       0.49586890       0.77016700
    17  C          0.27311180       0.86331110       0.38620800
    18  C          0.72688820       0.36331110       0.11379200
    19  C          0.72688820       0.13668890       0.61379200
    20  C          0.27311180       0.63668890       0.88620800
    21  C          0.39652180       0.91865110       0.16022700
    22  C          0.60347820       0.41865110       0.33977300
    23  C          0.60347820       0.08134890       0.83977300
    24  C          0.39652180       0.58134890       0.66022700
    25  H          0.40000000       0.85300000       0.18600000
    26  H          0.60000000       0.35300000       0.31400000
    27  H          0.60000000       0.14700000       0.81400000
    28  H          0.40000000       0.64700000       0.68600000
    29  C          0.47628170       0.00819110       0.19504700
    30  C          0.52371830       0.50819110       0.30495300
    31  C          0.52371830      -0.00819110       0.80495300
    32  C          0.47628170       0.49180890       0.69504700
    33  C          0.47002180       0.10385110       0.15577800
    34  C          0.52997820       0.60385110       0.34422200
    35  C          0.52997820       0.89614890       0.84422200
    36  C          0.47002180       0.39614890       0.65577800
    37  H          0.52650000       0.16490000       0.17800000
    38  H          0.47350000       0.66490000       0.32200000
    39  H          0.47350000       0.83510000       0.82200000
    40  H          0.52650000       0.33510000       0.67800000
    41  C          0.05876180       0.17831110       0.28594800
    42  C          0.94123820       0.67831110       0.21405200
    43  C          0.94123820       0.82168890       0.71405200
    44  C          0.05876180       0.32168890       0.78594800
    45  C          0.02608180       0.10211110       0.23120800
    46  C          0.97391820       0.60211110       0.26879200
    47  C          0.97391820       0.89788890       0.76879200
    48  C          0.02608180       0.39788890       0.73120800
    49  H          0.11020000       0.08900000       0.19710000
    50  H          0.88980000       0.58900000       0.30290000
    51  H          0.88980000       0.91100000       0.80290000
    52  H          0.11020000       0.41100000       0.69710000
    53  C          0.78179180       0.14025110       0.33247700
    54  C          0.21820820       0.64025110       0.16752300
    55  C          0.21820820       0.85974890       0.66752300
    56  C          0.78179180       0.35974890       0.83247700
    57  H          0.69890000       0.15310000       0.36720000
    58  H          0.30110000       0.65310000       0.13280000
    59  H          0.30110000       0.84690000       0.63280000
    60  H          0.69890000       0.34690000       0.86720000
    61  C          0.62831180       0.93740110       0.39741800
    62  C          0.37168820       0.43740110       0.10258200
    63  C          0.37168820       0.06259890       0.60258200
    64  C          0.62831180       0.56259890       0.89741800
    65  H          0.74680000       0.96330000       0.40010000
    66  H          0.25320000       0.46330000       0.09990000
    67  H          0.25320000       0.03670000       0.59990000
    68  H          0.74680000       0.53670000       0.90010000
    69  C          0.33386180       0.91115110       0.32758700
    70  C          0.66613820       0.41115110       0.17241300
    71  C          0.66613820       0.08884890       0.67241300
    72  C          0.33386180       0.58884890       0.82758700
    73  H          0.25570000       0.91830000       0.28340000
    74  H          0.74430000       0.41830000       0.21660000
    75  H          0.74430000       0.08170000       0.71660000
    76  H          0.25570000       0.58170000       0.78340000
    77  C          0.93879190       0.19789110       0.33662800
    78  C          0.06120810       0.69789110       0.16337200
    79  C          0.06120810       0.80210890       0.66337200
    80  C          0.93879190       0.30210890       0.83662800
    81  H          0.96360000       0.25020000       0.37380000
    82  H          0.03640000       0.75020000       0.12620000
    83  H          0.03640000       0.74980000       0.62620000
    84  H          0.96360000       0.24980000       0.87380000
    85  C          0.57495190       0.88869110       0.45723700
    86  C          0.42504810       0.38869110       0.04276300
    87  C          0.42504810       0.11130890       0.54276300
    88  C          0.57495190       0.61130890       0.95723700
    89  C          0.74457180       0.06332110       0.27756700
    90  C          0.25542820       0.56332110       0.22243300
    91  C          0.25542820       0.93667890       0.72243300
    92  C          0.74457180       0.43667890       0.77756700
    93  C          0.51310180       0.95216110       0.32901700
    94  C          0.48689820       0.45216110       0.17098300
    95  C          0.48689820       0.04783890       0.67098300
    96  C          0.51310180       0.54783890       0.82901700
    97  C          0.39176190       0.84936110       0.45512700
    98  C          0.60823810       0.34936110       0.04487300
    99  C          0.60823810       0.15063890       0.54487300
   100  C          0.39176190       0.65063890       0.95512700
   101  C          0.86857180       0.04559110       0.22729700
   102  C          0.13142820       0.54559110       0.27270300
   103  C          0.13142820       0.95440890       0.77270300
   104  C          0.86857180       0.45440890       0.72729700
   105  H          0.84430000      -0.00620000       0.18970000
   106  H          0.15570000       0.49380000       0.31030000
   107  H          0.15570000       0.00620000       0.81030000
   108  H          0.84430000       0.50620000       0.68970000
   109  C          0.69582000       0.87142120       0.52716800
   110  C          0.30418000       0.37142120       0.97283200
   111  C          0.30418000       0.12857880       0.47283200
   112  C          0.69582000       0.62857880       0.02716800
   113  H          0.81090000       0.90520000       0.52270000
   114  H          0.18910000       0.40520000       0.97730000
   115  H          0.18910000       0.09480000       0.47730000
   116  H          0.81090000       0.59480000       0.02270000
   117  H          0.71330000       0.79520000       0.53550000
   118  H          0.28670000       0.29520000       0.96450000
   119  H          0.28670000       0.20480000       0.46450000
   120  H          0.71330000       0.70480000       0.03550000
   121  H          0.64220000       0.90260000       0.56880000
   122  H          0.35780000       0.40260000       0.93120000
   123  H          0.35780000       0.09740000       0.43120000
   124  H          0.64220000       0.59740000       0.06880000
   125  C          0.30562180       0.02065130       0.05235800
   126  C          0.69437820       0.52065130       0.44764200
   127  C          0.69437820       0.97934870       0.94764200
   128  C          0.30562180       0.47934870       0.55235800
   129  C          0.08592000       0.82520130       0.38686800
   130  C          0.91408000       0.32520130       0.11313200
   131  C          0.91408000       0.17479870       0.61313200
   132  C          0.08592000       0.67479870       0.88686800
   133  H          0.01700000       0.84350000       0.33990000
   134  H         -0.01700000       0.34350000       0.16010000
   135  H         -0.01700000       0.15650000       0.66010000
   136  H          0.01700000       0.65650000       0.83990000
   137  H          0.03240000       0.85900000       0.42760000
   138  H          0.96760000       0.35900000       0.07240000
   139  H          0.96760000       0.14100000       0.57240000
   140  H          0.03240000       0.64100000       0.92760000
   141  H          0.08570000       0.74810000       0.39350000
   142  H          0.91430000       0.24810000       0.10650000
   143  H          0.91430000       0.25190000       0.60650000
   144  H          0.08570000       0.75190000       0.89350000
   145  C          0.31232180       0.92409120       0.08868800
   146  C          0.68767820       0.42409120       0.41131200
   147  C          0.68767820       0.07590880       0.91131200
   148  C          0.31232180       0.57590880       0.58868800
   149  H          0.26030000       0.86270000       0.06510000
   150  H          0.73970000       0.36270000       0.43490000
   151  H          0.73970000       0.13730000       0.93490000
   152  H          0.26030000       0.63730000       0.56510000
   153  C          0.38275190       0.11086120       0.08510800
   154  C          0.61724810       0.61086120       0.41489200
   155  C          0.61724810       0.88913880       0.91489200
   156  C          0.38275190       0.38913880       0.58510800
   157  H          0.37590000       0.17660000       0.05950000
   158  H          0.62410000       0.67660000       0.44050000
   159  H          0.62410000       0.82340000       0.94050000
   160  H          0.37590000       0.32340000       0.55950000
