data_PEQXOY24
_symmetry_space_group_name_H-M    'P1'
_symmetry_Int_Tables_number       1
loop_
_symmetry_equiv_pos_site_id
_symmetry_equiv_pos_as_xyz
1 x,y,z
_cell_length_a                   4.94653
_cell_length_b                   6.11433
_cell_length_c                   21.768812
_cell_angle_alpha                90.0
_cell_angle_beta                 90.0
_cell_angle_gamma                90.0
loop_
_atom_site_label
_atom_site_type_symbol
_atom_site_fract_x
_atom_site_fract_y
_atom_site_fract_z
     1  N          0.61585000       0.72254000       0.70786110
     2  N          0.88415000       0.27746000       0.20786110
     3  N          0.11585000       0.77746000       0.29213890
     4  N          0.38415000       0.22254000       0.79213890
     5  N          0.34795000       0.66104000       0.62878120
     6  N          0.15205000       0.33896000       0.12878120
     7  N          0.84795000       0.83896000       0.37121880
     8  N          0.65205000       0.16104000       0.87121880
     9  C          0.91816000       0.21265000       0.65564130
    10  C          0.58184000       0.78735000       0.15564130
    11  C          0.41816000       0.28735000       0.34435870
    12  C          0.08184000       0.71265000       0.84435870
    13  H          0.05100000       0.10710000       0.66150000
    14  H          0.44900000       0.89290000       0.16150000
    15  H          0.55100000       0.39290000       0.33850000
    16  H          0.94900000       0.60710000       0.83850000
    17  N          0.40335000       0.79294000       0.67443120
    18  N          0.09665000       0.20706000       0.17443120
    19  N          0.90335000       0.70706000       0.32556880
    20  N          0.59665000       0.29294000       0.82556880
    21  C          0.69345000       0.53664000       0.68217130
    22  C          0.80655000       0.46336000       0.18217130
    23  C          0.19345000       0.96336000       0.31782870
    24  C          0.30655000       0.03664000       0.81782870
    25  C          0.73216000       0.19304000       0.60616120
    26  C          0.76784000       0.80696000       0.10616120
    27  C          0.23216000       0.30696000       0.39383880
    28  C          0.26784000       0.69304000       0.89383880
    29  C          0.90056000       0.38404000       0.69373130
    30  C          0.59944000       0.61596000       0.19373130
    31  C          0.40056000       0.11596000       0.30626870
    32  C          0.09944000       0.88404000       0.80626870
    33  H          0.01980000       0.40150000       0.72640000
    34  H          0.48020000       0.59850000       0.22640000
    35  H          0.51980000       0.09850000       0.27360000
    36  H         -0.01980000       0.90150000       0.77360000
    37  N          0.59396000      -0.01274000       0.52787130
    38  N          0.90604000       0.01274000       0.02787130
    39  N          0.09396000       0.51274000       0.47212870
    40  N          0.40604000       0.48726000       0.97212870
    41  N          0.45057000       0.94595000       0.49027150
    42  N          0.04943000       0.05405000       0.99027150
    43  N          0.95057000       0.55405000       0.50972850
    44  N          0.54943000       0.44595000       0.00972850
    45  N          0.53014000       0.49923000       0.63341100
    46  N          0.96986000       0.50077000       0.13341100
    47  N          0.03014000       0.00077000       0.36658900
    48  N          0.46986000      -0.00077000       0.86658900
    49  N          0.53555000       0.32774000       0.59377100
    50  N          0.96445000       0.67226000       0.09377100
    51  N          0.03555000       0.17226000       0.40622900
    52  N          0.46445000       0.82774000       0.90622900
    53  N          0.77165000       0.01014000       0.56834120
    54  N          0.72835000      -0.01014000       0.06834120
    55  N          0.27165000       0.48986000       0.43165880
    56  N          0.22835000       0.51014000       0.93165880
