data_PEQXOY16
_symmetry_space_group_name_H-M    'P1'
_symmetry_Int_Tables_number       1
loop_
_symmetry_equiv_pos_site_id
_symmetry_equiv_pos_as_xyz
1 x,y,z
_cell_length_a                   7.315615
_cell_length_b                   5.834812
_cell_length_c                   13.9363
_cell_angle_alpha                90.0
_cell_angle_beta                 90.0
_cell_angle_gamma                90.0
loop_
_atom_site_label
_atom_site_type_symbol
_atom_site_fract_x
_atom_site_fract_y
_atom_site_fract_z
     1  N         -0.00671400       0.25000000       0.82330000
     2  N          0.50671400       0.75000000       0.32330000
     3  N          0.00671400       0.75000000       0.17670000
     4  N          0.49328600       0.25000000       0.67670000
     5  N          0.83618300       0.25000000       0.85830000
     6  N          0.66381700       0.75000000       0.35830000
     7  N          0.16381700       0.75000000       0.14170000
     8  N          0.33618300       0.25000000       0.64170000
     9  N          0.85419000       0.25000000       0.96120000
    10  N          0.64581000       0.75000000       0.46120000
    11  N          0.14581000       0.75000000       0.03880000
    12  N          0.35419000       0.25000000       0.53880000
    13  N          0.03691200       0.25000000       0.98061900
    14  N          0.46308800       0.75000000       0.48061900
    15  N          0.96308800       0.75000000       0.01938100
    16  N          0.53691200       0.25000000       0.51938100
    17  N          0.11441100       0.25000000       0.06320000
    18  N          0.38558900       0.75000000       0.56320000
    19  N          0.88558900       0.75000000       0.93680000
    20  N          0.61441100       0.25000000       0.43680000
    21  C          0.29191200       0.25000000       0.06030000
    22  C          0.20808800       0.75000000       0.56030000
    23  C          0.70808800       0.75000000       0.93970000
    24  C          0.79191200       0.25000000       0.43970000
    25  C          0.40391500       0.25000000       0.98220000
    26  C          0.09608500       0.75000000       0.48220000
    27  C          0.59608500       0.75000000       0.01780000
    28  C          0.90391500       0.25000000       0.51780000
    29  H          0.53080000       0.25000000       0.98640000
    30  H          0.96920000       0.75000000       0.48640000
    31  H          0.46920000       0.75000000       0.01360000
    32  H          0.03080000       0.25000000       0.51360000
    33  C          0.31831600       0.25000000       0.90330000
    34  C          0.18168400       0.75000000       0.40330000
    35  C          0.68168400       0.75000000       0.09670000
    36  C          0.81831600       0.25000000       0.59670000
    37  H          0.38540000       0.25000000       0.84670000
    38  H          0.11460000       0.75000000       0.34670000
    39  H          0.61460000       0.75000000       0.15330000
    40  H          0.88540000       0.25000000       0.65330000
    41  C          0.11851700       0.25000000       0.89701900
    42  C          0.38148300       0.75000000       0.39701900
    43  C          0.88148300       0.75000000       0.10298100
    44  C          0.61851700       0.25000000       0.60298100
    45  N          0.39081500       0.25000000       0.14220000
    46  N          0.10918500       0.75000000       0.64220000
    47  N          0.60918500       0.75000000       0.85780000
    48  N          0.89081500       0.25000000       0.35780000
    49  N          0.30391600       0.25000000       0.22440000
    50  N          0.19608400       0.75000000       0.72440000
    51  N          0.69608400       0.75000000       0.77560000
    52  N          0.80391600       0.25000000       0.27560000
    53  N          0.27430000       0.25000000       0.31250000
    54  N          0.22570000       0.75000000       0.81250000
    55  N          0.72570000       0.75000000       0.68750000
    56  N          0.77430000       0.25000000       0.18750000
