data_PEQXOY
_symmetry_space_group_name_H-M    'P1'
_symmetry_Int_Tables_number       1
loop_
_symmetry_equiv_pos_site_id
_symmetry_equiv_pos_as_xyz
1 x,y,z
_cell_length_a                   7.5112
_cell_length_b                   6.16301
_cell_length_c                   14.7903
_cell_angle_alpha                90.0
_cell_angle_beta                 90.0
_cell_angle_gamma                90.0
loop_
_atom_site_label
_atom_site_type_symbol
_atom_site_fract_x
_atom_site_fract_y
_atom_site_fract_z
     1  N          0.97727000       0.25000000       0.82802000
     2  N          0.52273000       0.75000000       0.32802000
     3  N          0.47727000       0.25000000       0.67198000
     4  N          0.02273000       0.75000000       0.17198000
     5  N          0.82607000       0.25000000       0.87652000
     6  N          0.67393000       0.75000000       0.37652000
     7  N          0.32607000       0.25000000       0.62348000
     8  N          0.17393000       0.75000000       0.12348000
     9  N          0.85587000       0.25000000       0.96322000
    10  N          0.64413000       0.75000000       0.46322000
    11  N          0.35587000       0.25000000       0.53678000
    12  N          0.14413000       0.75000000       0.03678000
    13  N          0.03522000       0.25000000       0.97101000
    14  N          0.46478000       0.75000000       0.47101000
    15  N          0.53522000       0.25000000       0.52899000
    16  N          0.96478000       0.75000000       0.02899000
    17  N          0.11662000       0.25000000       0.05211000
    18  N          0.38338000       0.75000000       0.55211000
    19  N          0.61662000       0.25000000       0.44789000
    20  N          0.88338000       0.75000000       0.94789000
    21  C          0.29063000       0.25000000       0.04392000
    22  C          0.20937000       0.75000000       0.54392000
    23  C          0.79063000       0.25000000       0.45608000
    24  C          0.70937000       0.75000000       0.95608000
    25  C          0.38523000       0.25000000       0.96052000
    26  C          0.11477000       0.75000000       0.46052000
    27  C          0.88523000       0.25000000       0.53948000
    28  C          0.61477000       0.75000000       0.03948000
    29  C          0.29724000       0.25000000       0.88272000
    30  C          0.20276000       0.75000000       0.38272000
    31  C          0.79724000       0.25000000       0.61728000
    32  C          0.70276000       0.75000000       0.11728000
    33  C          0.10803000       0.25000000       0.88782000
    34  C          0.39197000       0.75000000       0.38782000
    35  C          0.60803000       0.25000000       0.61218000
    36  C          0.89197000       0.75000000       0.11218000
    37  N          0.39523000       0.25000000       0.12152000
    38  N          0.10477000       0.75000000       0.62152000
    39  N          0.89523000       0.25000000       0.37848000
    40  N          0.60477000       0.75000000       0.87848000
    41  N          0.31323000       0.25000000       0.19502000
    42  N          0.18677000       0.75000000       0.69502000
    43  N          0.81323000       0.25000000       0.30498000
    44  N          0.68677000       0.75000000       0.80498000
    45  N          0.25984000       0.25000000       0.26482000
    46  N          0.24016000       0.75000000       0.76482000
    47  N          0.75984000       0.25000000       0.23518000
    48  N          0.74016000       0.75000000       0.73518000
    49  H          0.50684500       0.25000000       0.96951700
    50  H         -0.00684500       0.75000000       0.46951700
    51  H          0.00684500       0.25000000       0.53048300
    52  H          0.49315500       0.75000000       0.03048300
    53  H          0.35724800       0.25000000       0.82762400
    54  H          0.14275200       0.75000000       0.32762400
    55  H          0.85724800       0.25000000       0.67237600
    56  H          0.64275200       0.75000000       0.17237600
