data_PHBARB
_symmetry_space_group_name_H-M    'P1'
_symmetry_Int_Tables_number       1
loop_
_symmetry_equiv_pos_site_id
_symmetry_equiv_pos_as_xyz
1 x,y,z
_cell_length_a                   9.5342
_cell_length_b                   11.8553
_cell_length_c                   10.7943
_cell_angle_alpha                90.0
_cell_angle_beta                 111.561
_cell_angle_gamma                90.0
loop_
_atom_site_label
_atom_site_type_symbol
_atom_site_fract_x
_atom_site_fract_y
_atom_site_fract_z
     1  C          0.14652000       0.06158000       0.29122000
     2  C          0.85348000       0.56158000       0.20878000
     3  C          0.85348000       0.93842000       0.70878000
     4  C          0.14652000       0.43842000       0.79122000
     5  C          0.03308000       0.08390000       0.33944000
     6  C          0.96692000       0.58390000       0.16056000
     7  C          0.96692000       0.91610000       0.66056000
     8  C          0.03308000       0.41610000       0.83944000
     9  C          0.93079000       0.16886000       0.28699000
    10  C          0.06921000       0.66886000       0.21301000
    11  C          0.06921000       0.83114000       0.71301000
    12  C          0.93079000       0.33114000       0.78699000
    13  C          0.94179000       0.23259000       0.18491000
    14  C          0.05821000       0.73259000       0.31509000
    15  C          0.05821000       0.76741000       0.81509000
    16  C          0.94179000       0.26741000       0.68491000
    17  C          0.05508000       0.21172000       0.13535000
    18  C          0.94492000       0.71172000       0.36465000
    19  C          0.94492000       0.78828000       0.86465000
    20  C          0.05508000       0.28828000       0.63535000
    21  C          0.56349000       0.10012000       0.35278000
    22  C          0.43651000       0.60012000       0.14722000
    23  C          0.43651000       0.89988000       0.64722000
    24  C          0.56349000       0.39988000       0.85278000
    25  C          0.36121000      -0.00679000       0.18831000
    26  C          0.63879000       0.49321000       0.31169000
    27  C          0.63879000       0.00679000       0.81169000
    28  C          0.36121000       0.50679000       0.68831000
    29  C          0.27898000       0.10191000       0.12759000
    30  C          0.72102000       0.60191000       0.37241000
    31  C          0.72102000       0.89809000       0.87241000
    32  C          0.27898000       0.39809000       0.62759000
    33  C          0.38532000       0.20334000       0.16474000
    34  C          0.61468000       0.70334000       0.33526000
    35  C          0.61468000       0.79666000       0.83526000
    36  C          0.38532000       0.29666000       0.66474000
    37  C          0.20434000       0.08998000       0.97412000
    38  C          0.79566000       0.58998000       0.52588000
    39  C          0.79566000       0.91002000       0.02588000
    40  C          0.20434000       0.41002000       0.47412000
    41  C          0.31394000       0.06784000       0.90428000
    42  C          0.68606000       0.56784000       0.59572000
    43  C          0.68606000       0.93216000       0.09572000
    44  C          0.31394000       0.43216000       0.40428000
    45  C          0.15749000       0.12490000       0.18730000
    46  C          0.84251000       0.62490000       0.31270000
    47  C          0.84251000       0.87510000       0.81270000
    48  C          0.15749000       0.37510000       0.68730000
    49  H          0.56630000       0.26840000       0.31420000
    50  H          0.43370000       0.76840000       0.18580000
    51  H          0.43370000       0.73160000       0.68580000
    52  H          0.56630000       0.23160000       0.81420000
    53  H          0.22630000      -0.00590000       0.33380000
    54  H          0.77370000       0.49410000       0.16620000
    55  H          0.77370000       0.00590000       0.66620000
    56  H          0.22630000       0.50590000       0.83380000
    57  H          0.02970000       0.03370000       0.42320000
    58  H          0.97030000       0.53370000       0.07680000
    59  H          0.97030000       0.96630000       0.57680000
    60  H          0.02970000       0.46630000       0.92320000
    61  H          0.84170000       0.18580000       0.32510000
    62  H          0.15830000       0.68580000       0.17490000
    63  H          0.15830000       0.81420000       0.67490000
    64  H          0.84170000       0.31420000       0.82510000
    65  H          0.85750000       0.29720000       0.13460000
    66  H          0.14250000       0.79720000       0.36540000
    67  H          0.14250000       0.70280000       0.86540000
    68  H          0.85750000       0.20280000       0.63460000
    69  H          0.06280000       0.26260000       0.05400000
    70  H          0.93720000       0.76260000       0.44600000
    71  H          0.93720000       0.73740000       0.94600000
    72  H          0.06280000       0.23740000       0.55400000
    73  H          0.53170000       0.93060000       0.34850000
    74  H          0.46830000       0.43060000       0.15150000
    75  H          0.46830000       0.06940000       0.65150000
    76  H          0.53170000       0.56940000       0.84850000
    77  H          0.14360000       0.16620000       0.93340000
    78  H          0.85640000       0.66620000       0.56660000
    79  H          0.85640000       0.83380000       0.06660000
    80  H          0.14360000       0.33380000       0.43340000
    81  H          0.12490000       0.02110000       0.95080000
    82  H          0.87510000       0.52110000       0.54920000
    83  H          0.87510000       0.97890000       0.04920000
    84  H          0.12490000       0.47890000       0.45080000
    85  H          0.25700000       0.07510000       0.79620000
    86  H          0.74300000       0.57510000       0.70380000
    87  H          0.74300000       0.92490000       0.20380000
    88  H          0.25700000       0.42490000       0.29620000
    89  H          0.40610000       0.12900000       0.93780000
    90  H          0.59390000       0.62900000       0.56220000
    91  H          0.59390000       0.87100000       0.06220000
    92  H          0.40610000       0.37100000       0.43780000
    93  H          0.36090000       0.98270000       0.92800000
    94  H          0.63910000       0.48270000       0.57200000
    95  H          0.63910000       0.01730000       0.07200000
    96  H          0.36090000       0.51730000       0.42800000
    97  N          0.50987000       0.19663000       0.27969000
    98  N          0.49013000       0.69663000       0.22031000
    99  N          0.49013000       0.80337000       0.72031000
   100  N          0.50987000       0.30337000       0.77969000
   101  N          0.48863000       0.00188000       0.30072000
   102  N          0.51137000       0.50188000       0.19928000
   103  N          0.51137000      -0.00188000       0.69928000
   104  N          0.48863000       0.49812000       0.80072000
   105  O          0.67427000       0.10113000       0.45361000
   106  O          0.32573000       0.60113000       0.04639000
   107  O          0.32573000       0.89887000       0.54639000
   108  O          0.67427000       0.39887000       0.95361000
   109  O          0.31378000       0.90061000       0.14218000
   110  O          0.68622000       0.40061000       0.35782000
   111  O          0.68622000       0.09939000       0.85782000
   112  O          0.31378000       0.59939000       0.64218000
   113  O          0.35798000       0.29002000       0.09992000
   114  O          0.64202000       0.79002000       0.40008000
   115  O          0.64202000       0.70998000       0.90008000
   116  O          0.35798000       0.20998000       0.59992000
