data_PHBARB08
_symmetry_space_group_name_H-M    'P1'
_symmetry_Int_Tables_number       1
loop_
_symmetry_equiv_pos_site_id
_symmetry_equiv_pos_as_xyz
1 x,y,z
_cell_length_a                   10.7362
_cell_length_b                   23.3985
_cell_length_c                   6.719414
_cell_angle_alpha                90.95917
_cell_angle_beta                 94.50416
_cell_angle_gamma                88.35817
loop_
_atom_site_label
_atom_site_type_symbol
_atom_site_fract_x
_atom_site_fract_y
_atom_site_fract_z
     1  O          0.23812000       0.40698100       0.79874000
     2  O          0.76188000       0.59301900       0.20126000
     3  O          0.06222000       0.56817100       0.52743000
     4  O          0.93778000       0.43182900       0.47257000
     5  O          0.46037190       0.56690900       0.88873000
     6  O          0.53962810       0.43309100       0.11127000
     7  N          0.34312000       0.48938110       0.85474000
     8  N          0.65688000       0.51061890       0.14526000
     9  H          0.40170000       0.47060000       0.92790000
    10  H          0.59830000       0.52940000       0.07210000
    11  N          0.14822000       0.48946120       0.67344000
    12  N          0.85178000       0.51053880       0.32656000
    13  H          0.08150000       0.47070000       0.62910000
    14  H          0.91850000       0.52930000       0.37090000
    15  C          0.24123000       0.45846140       0.77795000
    16  C          0.75877000       0.54153860       0.22205000
    17  C          0.14823000       0.54638140       0.63095000
    18  C          0.85177000       0.45361860       0.36905000
    19  C          0.25573000       0.58175130       0.72164000
    20  C          0.74427000       0.41824870       0.27836000
    21  C          0.36103000       0.54590130       0.82765000
    22  C          0.63897000       0.45409870       0.17235000
    23  C          0.31023000       0.61270140       0.54675000
    24  C          0.68977000       0.38729860       0.45325000
    25  H          0.24360000       0.63730000       0.47970000
    26  H          0.75640000       0.36270000       0.52030000
    27  H          0.37750000       0.63780000       0.60180000
    28  H          0.62250000       0.36220000       0.39820000
    29  C          0.36284000       0.57209160       0.39095000
    30  C          0.63716000       0.42790840       0.60905000
    31  H          0.43190000       0.54890000       0.45420000
    32  H          0.56810000       0.45110000       0.54580000
    33  H          0.39340000       0.59440000       0.28360000
    34  H          0.60660000       0.40560000       0.71640000
    35  H          0.29690000       0.54700000       0.33530000
    36  H          0.70310000       0.45300000       0.66470000
    37  C          0.20663000       0.62292140       0.87894000
    38  C          0.79337000       0.37707860       0.12106000
    39  C          0.27233000       0.67117150       0.93565000
    40  C          0.72767000       0.32882850       0.06435000
    41  H          0.34730000       0.67880000       0.87610000
    42  H          0.65270000       0.32120000       0.12390000
    43  C          0.22963000       0.70859160       0.07865000
    44  C          0.77037000       0.29140840       0.92135000
    45  H          0.27590000       0.74160000       0.11610000
    46  H          0.72410000       0.25840000       0.88390000
    47  C          0.12033000       0.69857150       0.16785000
    48  C          0.87967000       0.30142850       0.83215000
    49  H          0.09090000       0.72460000       0.26480000
    50  H          0.90910000       0.27540000       0.73520000
    51  C          0.05523000       0.65013150       0.11285000
    52  C          0.94477000       0.34986850       0.88715000
    53  H          0.98030000       0.64260000       0.17310000
    54  H          0.01970000       0.35740000       0.82690000
    55  C          0.09753000       0.61201150       0.97005000
    56  C          0.90247000       0.38798850       0.02995000
    57  H          0.05220000       0.57860000       0.93460000
    58  H          0.94780000       0.42140000       0.06540000
    59  O          0.79172000       0.56592110       0.74674000
    60  O          0.20828000       0.43407890       0.25326000
    61  O          0.52052000       0.71749100       0.74184000
    62  O          0.47948000       0.28250900       0.25816000
    63  O          0.91472000       0.72830110       0.47844000
    64  O          0.08528000       0.27169890       0.52156000
    65  N          0.85482000       0.65030120       0.62964000
    66  N          0.14518000       0.34969880       0.37036000
    67  H          0.92860000       0.63440000       0.61260000
    68  H          0.07140000       0.36560000       0.38740000
    69  N          0.65923000       0.64416120       0.75054000
    70  N          0.34077000       0.35583880       0.24946000
    71  H          0.60420000       0.62370000       0.80600000
    72  H          0.39580000       0.37630000       0.19400000
    73  C          0.77123000       0.61692150       0.71185000
    74  C          0.22877000       0.38307850       0.28815000
    75  C          0.62623000       0.69961150       0.71065000
    76  C          0.37377000       0.30038850       0.28935000
    77  C          0.71993000       0.73838140       0.62835000
    78  C          0.28007000       0.26161860       0.37165000
    79  C          0.83723000       0.70653150       0.56965000
    80  C          0.16277000       0.29346850       0.43035000
    81  C          0.65873000       0.76753150       0.43725000
    82  C          0.34127000       0.23246850       0.56275000
    83  H          0.58610000       0.79140000       0.47360000
    84  H          0.41390000       0.20860000       0.52640000
    85  H          0.71980000       0.79320000       0.38490000
    86  H          0.28020000       0.20680000       0.61510000
    87  C          0.61574000       0.72577190       0.27446000
    88  C          0.38426000       0.27422810       0.72554000
    89  H          0.68770000       0.70340000       0.23200000
    90  H          0.31230000       0.29660000       0.76800000
    91  H          0.57590000       0.74680000       0.16040000
    92  H          0.42410000       0.25320000       0.83960000
    93  H          0.55550000       0.70000000       0.32500000
    94  H          0.44450000       0.30000000       0.67500000
    95  C          0.75573000       0.78319140       0.79245000
    96  C          0.24427000       0.21680860       0.20755000
    97  C          0.66943000       0.82574150       0.84075000
    98  C          0.33057000       0.17425850       0.15925000
    99  H          0.58910000       0.82750000       0.77050000
   100  H          0.41090000       0.17250000       0.22950000
   101  C          0.81684000       0.86368160       0.09335000
   102  C          0.18316000       0.13631840       0.90665000
   103  H          0.83820000       0.89110000       0.19540000
   104  H          0.16180000       0.10890000       0.80460000
   105  C          0.90234000       0.82143180       0.04586000
   106  C          0.09766000       0.17856820       0.95414000
   107  H          0.98320000       0.82010000       0.11420000
   108  H          0.01680000       0.17990000       0.88580000
   109  C          0.87083000       0.78064160       0.89825000
   110  C          0.12917000       0.21935840       0.10175000
   111  H          0.92920000       0.75090000       0.87040000
   112  H          0.07080000       0.24910000       0.12960000
   113  C          0.69994000       0.86583180      -0.00874000
   114  C          0.30006000       0.13416820       0.00874000
   115  H          0.64030000       0.89460000       0.02370000
   116  H          0.35970000       0.10540000       0.97630000
   117  O          0.18092000       0.07602110       0.44584000
   118  O          0.81908000       0.92397890       0.55416000
   119  O          0.48274190       0.94328100       0.33023000
   120  O          0.51725810       0.05671900       0.66977000
   121  O          0.09162000       0.94183100       0.96917000
   122  O          0.90838000       0.05816900       0.03083000
   123  N          0.13842000       0.01038120       0.20054000
   124  N          0.86158000       0.98961880       0.79946000
   125  H          0.06920000       0.02930000       0.16040000
   126  H          0.93080000       0.97070000       0.83960000
   127  N          0.33182000       0.00910120       0.38774000
   128  N          0.66818000       0.99089880       0.61226000
   129  H          0.38490000       0.02670000       0.47250000
   130  H          0.61510000       0.97330000       0.52750000
   131  C          0.21313000       0.03490150       0.35255000
   132  C          0.78687000       0.96509850       0.64745000
   133  C          0.37383000       0.95934140       0.30365000
   134  C          0.62617000       0.04065860       0.69635000
   135  C          0.16133000       0.95952140       0.10625000
   136  C          0.83867000       0.04047860       0.89375000
   137  C          0.27733000       0.92367130       0.18225000
   138  C          0.72267000       0.07632870       0.81775000
   139  C          0.33453000       0.89430150       0.00545000
   140  C          0.66547000       0.10569850      -0.00545000
   141  H          0.40830000       0.87090000       0.05540000
   142  H          0.59170000       0.12910000       0.94460000
   143  H          0.27270000       0.86810000       0.93920000
   144  H          0.72730000       0.13190000       0.06080000
   145  C          0.37414000       0.93573180       0.85215000
   146  C          0.62586000       0.06426820       0.14785000
   147  H          0.29990000       0.95510000       0.78760000
   148  H          0.70010000       0.04490000       0.21240000
   149  H          0.41890000       0.91470000       0.75130000
   150  H          0.58110000       0.08530000       0.24870000
   151  H          0.42900000       0.96410000       0.91880000
   152  H          0.57100000       0.03590000       0.08120000
   153  C          0.23543000       0.88092130       0.33504000
   154  C          0.76457000       0.11907870       0.66496000
   155  C          0.11963000       0.88538140       0.41475000
   156  C          0.88037000       0.11461860       0.58525000
   157  H          0.06300000       0.91570000       0.37470000
   158  H          0.93700000       0.08430000       0.62530000
   159  C          0.08603000       0.84629160       0.55115000
   160  C          0.91397000       0.15370840       0.44885000
   161  H          0.00610000       0.84980000       0.60250000
   162  H         -0.00610000       0.15020000       0.39750000
   163  C          0.16723000       0.80199150       0.61395000
   164  C          0.83277000       0.19800850       0.38605000
   165  H          0.14320000       0.77510000       0.70710000
   166  H          0.85680000       0.22490000       0.29290000
   167  C          0.28493000       0.79731150       0.53895000
   168  C          0.71507000       0.20268850       0.46105000
   169  H          0.34220000       0.76760000       0.58250000
   170  H          0.65780000       0.23240000       0.41750000
   171  C          0.31723000       0.83645150       0.40005000
   172  C          0.68277000       0.16354850       0.59995000
   173  H          0.39690000       0.83290000       0.34800000
   174  H          0.60310000       0.16710000       0.65200000
