data_PHBARB12
_symmetry_space_group_name_H-M    'P1'
_symmetry_Int_Tables_number       1
loop_
_symmetry_equiv_pos_site_id
_symmetry_equiv_pos_as_xyz
1 x,y,z
_cell_length_a                   12.760612
_cell_length_b                   6.76245
_cell_length_c                   26.8473
_cell_angle_alpha                90.0
_cell_angle_beta                 98.8299
_cell_angle_gamma                90.0
loop_
_atom_site_label
_atom_site_type_symbol
_atom_site_fract_x
_atom_site_fract_y
_atom_site_fract_z
     1  O          0.66482000       0.85325000       0.95387140
     2  O          0.83518000       0.35325000       0.54612860
     3  O          0.33518000       0.14675000       0.04612860
     4  O          0.16482000       0.64675000       0.45387140
     5  O          0.76343000       0.25815000       0.90281150
     6  O          0.73657000       0.75815000       0.59718850
     7  O          0.23657000       0.74185000       0.09718850
     8  O          0.26343000       0.24185000       0.40281150
     9  O          0.88022000       0.85145000       0.83532130
    10  O          0.61978000       0.35145000       0.66467870
    11  O          0.11978000       0.14855000       0.16467870
    12  O          0.38022000       0.64855000       0.33532130
    13  N          0.77823000       0.84995000       0.89667170
    14  N          0.72177000       0.34995000       0.60332830
    15  N          0.22177000       0.15005000       0.10332830
    16  N          0.27823000       0.65005000       0.39667170
    17  H          0.76730000       0.97730000       0.89291900
    18  H          0.73270000       0.47730000       0.60708100
    19  H          0.23270000       0.02270000       0.10708100
    20  H          0.26730000       0.52270000       0.39291900
    21  N          0.71993000       0.55546000       0.92898160
    22  N          0.78007000       0.05546000       0.57101840
    23  N          0.28007000       0.44454000       0.07101840
    24  N          0.21993000       0.94454000       0.42898160
    25  H          0.68730000       0.49370000       0.95081400
    26  H          0.81270000      -0.00630000       0.54918600
    27  H          0.31270000       0.50630000       0.04918600
    28  H          0.18730000       0.00630000       0.45081400
    29  C          0.71834000       0.75817000       0.92865190
    30  C          0.78166000       0.25817000       0.57134810
    31  C          0.28166000       0.24183000       0.07134810
    32  C          0.21834000       0.74183000       0.42865190
    33  C          0.77343000       0.43747000       0.90077180
    34  C          0.72657000       0.93747000       0.59922820
    35  C          0.22657000       0.56253000       0.09922820
    36  C          0.27343000       0.06253000       0.40077180
    37  C          0.84713000       0.53076000       0.86815180
    38  C          0.65287000       0.03076000       0.63184820
    39  C          0.15287000       0.46924000       0.13184820
    40  C          0.34713000       0.96924000       0.36815180
    41  C          0.83734000       0.75517000       0.86422000
    42  C          0.66266000       0.25517000       0.63578000
    43  C          0.16266000       0.24483000       0.13578000
    44  C          0.33734000       0.74483000       0.36422000
    45  C          0.82224000       0.44738000       0.81462180
    46  C          0.67776000       0.94738000       0.68537820
    47  C          0.17776000       0.55262000       0.18537820
    48  C          0.32224000       0.05262000       0.31462180
    49  H          0.82850000       0.30140000       0.81610000
    50  H          0.67150000       0.80140000       0.68390000
    51  H          0.17150000       0.69860000       0.18390000
    52  H          0.32850000       0.19860000       0.31610000
    53  H          0.87550000       0.49760000       0.79440000
    54  H          0.62450000      -0.00240000       0.70560000
    55  H          0.12450000       0.50240000       0.20560000
    56  H          0.37550000       0.00240000       0.29440000
    57  C          0.71054000       0.50308000       0.78822000
    58  C          0.78946000       0.00308000       0.71178000
    59  C          0.28946000       0.49692000       0.21178000
    60  C          0.21054000      -0.00308000       0.28822000
    61  H          0.65810000       0.46920000       0.81000000
    62  H          0.84190000       0.96920000       0.69000000
    63  H          0.34190000       0.53080000       0.19000000
    64  H          0.15810000       0.03080000       0.31000000
    65  H          0.69440000       0.43000000       0.75630000
    66  H          0.80560000       0.93000000       0.74370000
    67  H          0.30560000       0.57000000       0.24370000
    68  H          0.19440000       0.07000000       0.25630000
    69  H          0.70770000       0.64540000       0.78130000
    70  H          0.79230000       0.14540000       0.71870000
    71  H          0.29230000       0.35460000       0.21870000
    72  H          0.20770000       0.85460000       0.28130000
    73  C          0.96213000       0.48347000       0.89462000
    74  C          0.53787000      -0.01653000       0.60538000
    75  C          0.03787000       0.51653000       0.10538000
    76  C          0.46213000       0.01653000       0.39462000
    77  C          0.01124000       0.30989000       0.88442000
    78  C          0.48876000       0.80989000       0.61558000
    79  C         -0.01124000       0.69011000       0.11558000
    80  C          0.51124000       0.19011000       0.38442000
    81  H          0.97540000       0.21960000       0.86040000
    82  H          0.52460000       0.71960000       0.63960000
    83  H          0.02460000       0.78040000       0.13960000
    84  H          0.47540000       0.28040000       0.36040000
    85  C          0.11314000       0.26509000       0.90912000
    86  C          0.38686000       0.76509000       0.59088000
    87  C          0.88686000       0.73491000       0.09088000
    88  C          0.61314000       0.23491000       0.40912000
    89  H          0.14580000       0.14360000       0.90230000
    90  H          0.35420000       0.64360000       0.59770000
    91  H          0.85420000       0.85640000       0.09770000
    92  H          0.64580000       0.35640000       0.40230000
    93  C          0.16604000       0.39619000       0.94302000
    94  C          0.33396000       0.89619000       0.55698000
    95  C          0.83396000       0.60381000       0.05698000
    96  C          0.66604000       0.10381000       0.44302000
    97  H          0.23650000       0.36810000       0.95870000
    98  H          0.26350000       0.86810000       0.54130000
    99  H          0.76350000       0.63190000       0.04130000
   100  H          0.73650000       0.13190000       0.45870000
   101  C          0.11684000       0.56879000       0.95432000
   102  C          0.38316000       0.06879000       0.54568000
   103  C          0.88316000       0.43121000       0.04568000
   104  C          0.61684000       0.93121000       0.45432000
   105  H          0.15210000       0.65750000       0.97880000
   106  H          0.34790000       0.15750000       0.52120000
   107  H          0.84790000       0.34250000       0.02120000
   108  H          0.65210000       0.84250000       0.47880000
   109  C          0.01624000       0.61118000       0.92992000
   110  C          0.48376000       0.11118000       0.57008000
   111  C          0.98376000       0.38882000       0.07008000
   112  C          0.51624000       0.88882000       0.42992000
   113  H          0.98310000       0.73110000       0.93740000
   114  H          0.51690000       0.23110000       0.56260000
   115  H          0.01690000       0.26890000       0.06260000
   116  H          0.48310000       0.76890000       0.43740000
   117  O          0.39102000       0.63505000       0.00274140
   118  O          0.10898000       0.13505000       0.49725860
   119  O          0.60898000       0.36495000      -0.00274140
   120  O          0.89102000       0.86495000       0.50274140
   121  O          0.40293000       0.22475000       0.92644140
   122  O          0.09707000       0.72475000       0.57355860
   123  O          0.59707000       0.77525000       0.07355860
   124  O          0.90293000       0.27525000       0.42644140
   125  O          0.48883000       0.63035000       0.84856150
   126  O          0.01117000       0.13035000       0.65143850
   127  O          0.51117000       0.36965000       0.15143850
   128  O         -0.01117000       0.86965000       0.34856150
   129  N          0.43623000       0.63875000       0.92420170
   130  N          0.06377000       0.13875000       0.57579830
   131  N          0.56377000       0.36125000       0.07579830
   132  N          0.93623000       0.86125000       0.42420170
   133  H          0.44330000       0.51230000       0.92761900
   134  H          0.05670000       0.01230000       0.57238100
   135  H          0.55670000       0.48770000       0.07238100
   136  H          0.94330000      -0.01230000       0.42761900
   137  N          0.38943000       0.92776000       0.96175160
   138  N          0.11057000       0.42776000       0.53824840
   139  N          0.61057000       0.07224000       0.03824840
   140  N          0.88943000       0.57224000       0.46175160
   141  H          0.37740000      -0.01730000       0.99111100
   142  H          0.12260000       0.48270000       0.50888900
   143  H          0.62260000       0.01730000       0.00888900
   144  H          0.87740000       0.51730000       0.49111100
   145  C          0.40433000       0.72647000       0.96492000
   146  C          0.09567000       0.22647000       0.53508000
   147  C          0.59567000       0.27353000       0.03508000
   148  C          0.90433000       0.77353000       0.46492000
   149  C          0.40723000       0.04447000       0.92141190
   150  C          0.09277000       0.54447000       0.57858810
   151  C          0.59277000       0.95553000       0.07858810
   152  C          0.90723000       0.45553000       0.42141190
   153  C          0.42313000       0.94507000       0.87286180
   154  C          0.07687000       0.44507000       0.62713820
   155  C          0.57687000       0.05493000       0.12713820
   156  C          0.92313000       0.55493000       0.37286180
   157  C          0.45344000       0.72797000       0.87992000
   158  C          0.04656000       0.22797000       0.62008000
   159  C          0.54656000       0.27203000       0.12008000
   160  C          0.95344000       0.77203000       0.37992000
   161  C          0.51034000       0.06278000       0.85162000
   162  C         -0.01034000       0.56278000       0.64838000
   163  C          0.48966000       0.93722000       0.14838000
   164  C          0.01034000       0.43722000       0.35162000
   165  H          0.49130000       0.20480000       0.85180000
   166  H          0.00870000       0.70480000       0.64820000
   167  H          0.50870000       0.79520000       0.14820000
   168  H         -0.00870000       0.29520000       0.35180000
   169  H          0.57780000       0.04590000       0.87510000
   170  H          0.92220000       0.54590000       0.62490000
   171  H          0.42220000       0.95410000       0.12490000
   172  H          0.07780000       0.45410000       0.37510000
   173  C          0.53104000       0.01008000       0.79872000
   174  C          0.96896000       0.51008000       0.70128000
   175  C          0.46896000      -0.01008000       0.20128000
   176  C          0.03104000       0.48992000       0.29872000
   177  H          0.56110000       0.87650000       0.79890000
   178  H          0.93890000       0.37650000       0.70110000
   179  H          0.43890000       0.12350000       0.20110000
   180  H          0.06110000       0.62350000       0.29890000
   181  H          0.58110000       0.10510000       0.78790000
   182  H          0.91890000       0.60510000       0.71210000
   183  H          0.41890000       0.89490000       0.21210000
   184  H          0.08110000       0.39490000       0.28790000
   185  H          0.46390000       0.01440000       0.77520000
   186  H          0.03610000       0.51440000       0.72480000
   187  H          0.53610000      -0.01440000       0.22480000
   188  H          0.96390000       0.48560000       0.27520000
   189  C          0.31234000       0.95847000       0.83995180
   190  C          0.18766000       0.45847000       0.66004820
   191  C          0.68766000       0.04153000       0.16004820
   192  C          0.81234000       0.54153000       0.33995180
   193  C          0.23734000       0.80968000       0.84092000
   194  C          0.26266000       0.30968000       0.65908000
   195  C          0.76266000       0.19032000       0.15908000
   196  C          0.73734000       0.69032000       0.34092000
   197  H          0.25560000       0.69510000       0.86090000
   198  H          0.24440000       0.19510000       0.63910000
   199  H          0.74440000       0.30490000       0.13910000
   200  H          0.75560000       0.80490000       0.36090000
   201  C          0.13634000       0.82501100       0.81312000
   202  C          0.36366000       0.32501100       0.68688000
   203  C          0.86366000       0.17498900       0.18688000
   204  C          0.63634000       0.67498900       0.31312000
   205  H          0.08560000       0.72290000       0.81440000
   206  H          0.41440000       0.22290000       0.68560000
   207  H          0.91440000       0.27710000       0.18560000
   208  H          0.58560000       0.77710000       0.31440000
   209  C          0.11004000      -0.00848800       0.78322000
   210  C          0.38996000       0.49151200       0.71678000
   211  C          0.88996000       0.00848800       0.21678000
   212  C          0.61004000       0.50848800       0.28322000
   213  H          0.04100000       0.00260000       0.76390000
   214  H          0.45900000       0.50260000       0.73610000
   215  H          0.95900000      -0.00260000       0.23610000
   216  H          0.54100000       0.49740000       0.26390000
   217  C          0.18274000       0.13891000       0.78142000
   218  C          0.31726000       0.63891000       0.71858000
   219  C          0.81726000       0.86109000       0.21858000
   220  C          0.68274000       0.36109000       0.28142000
   221  H          0.16460000       0.25090000       0.76040000
   222  H          0.33540000       0.75090000       0.73960000
   223  H          0.83540000       0.74910000       0.23960000
   224  H          0.66460000       0.24910000       0.26040000
   225  C          0.28454000       0.12539000       0.81072000
   226  C          0.21546000       0.62539000       0.68928000
   227  C          0.71546000       0.87461000       0.18928000
   228  C          0.78454000       0.37461000       0.31072000
   229  H          0.33400000       0.23030000       0.81040000
   230  H          0.16600000       0.73030000       0.68960000
   231  H          0.66600000       0.76970000       0.18960000
   232  H          0.83400000       0.26970000       0.31040000
